<?xml version="1.0" encoding="UTF-8"?>

<!-- generated on 2026-03-15 16:28:57.062892 by Eclipse SUMO randomTrips.py v1_26_0+0000-fa7df22d7f1
<configuration>
    <net-file value="C:\Fixed_timer\traffic_simulation\data\network\chennai.net.xml"/>
    <output-trip-file value="C:\Fixed_timer\traffic_simulation\routes\trips.xml"/>
    <fringe-factor value="5"/>
    <period value="1.5"/>
</configuration>
-->

<!-- generated on 2026-03-15T16:28:55.688656+05:30 by Eclipse SUMO duarouter 1.26.0
<duarouterConfiguration xmlns:xsi="http://www.w3.org/2001/XMLSchema-instance" xsi:noNamespaceSchemaLocation="http://sumo.dlr.de/xsd/duarouterConfiguration.xsd">

    <input>
        <net-file value="C:\Fixed_timer\traffic_simulation\data\network\chennai.net.xml"/>
        <route-files value="C:\Fixed_timer\traffic_simulation\routes\trips.xml"/>
    </input>

    <output>
        <output-file value="routes.rou.xml"/>
        <alternatives-output value="NUL"/>
    </output>

    <time>
        <begin value="0"/>
        <end value="3600.0"/>
    </time>

    <report>
        <no-warnings value="true"/>
        <ignore-errors value="true"/>
        <no-step-log value="true"/>
    </report>

</duarouterConfiguration>
-->

<routes xmlns:xsi="http://www.w3.org/2001/XMLSchema-instance" xsi:noNamespaceSchemaLocation="http://sumo.dlr.de/xsd/routes_file.xsd">
    <vehicle id="0" depart="0.00">
        <route edges="206654153 -25466266#3 -25466266#2 -25466266#1 -25466266#0 101176398#6 25466310#0 25466310#1 25466310#2 25466310#4 25466310#5 25466310#6 25466310#7 25466310#10 25466310#12 25466310#14 25466310#15 25466310#16 25459576#0 25459576#1 27202021 25459949#0 25459949#1 22976235#0 -1249393975#0"/>
    </vehicle>
    <vehicle id="1" depart="1.50">
        <route edges="-25459372#0 1131526944 214598754#2 214598754#3 214598754#4 214598754#5 1304764386#0 1304764386#1 1304764386#2 1304764385 214598755#0 214598755#2 -126856132#3 -184913363 -25459210#24 -25459210#22 -25459210#20 -25459210#19 -25459210#18 -25459210#16 26607712#0 26607712#1 26607712#2 26607712#3 26607712#5 -206812363#2 -206812363#1 -206812363#0 -26748567#6 -26748567#5"/>
    </vehicle>
    <vehicle id="2" depart="3.00">
        <route edges="23164094#2 -23164094#2 -23164094#1 31893925#3 31893925#4 -23610928#0 -1313205071 449234343 1349707178#3 1349707178#6 1349707178#7 1349707178#8 1349707178#9 1349707178#10 -72850475#1 -72850475#0 209513217 73383445 1368395704 -27200598#4 -27200598#3 -27200598#2 -27200598#1 -27200598#0 -26886533#3 -26886533#2 -26886533#1 -26886533#0 25466396#6 27189888#0 27189888#1 27189913 217798334#0 217798333"/>
    </vehicle>
    <vehicle id="3" depart="4.50">
        <route edges="27432453#1 27432453#2 -23698648#2 -23698648#0 -23698632#1 -23698632#0 28682391#1 1229033621#0 1229033621#1 1229033621#2 1270815079#0 1270815079#1 1270815079#2 1270815079#3 -1035888752 -1049522243#1 -1049522243#0 25466413#0 25466413#1 25466413#2 25466413#3 25466413#4 25466477 -25459293#4 -25459293#3 -25459293#1 -1323786814 -1267322167 209514726#0 209514726#1 209514726#2 209535251#0 209535247#0 209535247#2 209535247#3 1189127458#0 1189127458#1 843860857#2 843860857#3 209514722 -189500786"/>
    </vehicle>
    <vehicle id="4" depart="6.00">
        <route edges="-217753823 -68536156#3 -68536156#2 184913300#0 184913300#1 184913300#2 184913300#3 184913300#4 1274531256 217750135#4 -27190013#2 -27190013#0 1363130879#0 1363130879#1 1363130879#2 1363130879#4 -383931208#7 -383931208#6 -383931208#5 28653934#0 28653934#1 28653934#2 -28653970#3 1269285831"/>
    </vehicle>
    <vehicle id="5" depart="7.50">
        <route edges="-1189608743 25459293#2 25459293#4 -28087774#3 -28087774#2 -28087774#1 -28087774#0 -26525766#3 -26525766#2 -26525766#1 -26525766#0 -25459372#3 26763953#0 26763953#1 26763953#2 26763953#3 1314888279 -1249828807 -206812356#2 -206812356#1 -206812356#0 -25466280#1"/>
    </vehicle>
    <vehicle id="6" depart="9.00">
        <route edges="206828306#0 206828306#1 -184913351#0 26748566#3 26748566#4 26748566#6 26748566#7 26748566#9 26748566#10 26748566#11 26748566#12 26748566#13 1151688948#0 1151688948#1 1151688948#2 1040143394#0 1281942588 418882860#1 418882860#2 836742076#0 836742076#1 836742076#2 1310172814 69610262#1 69610262#6 663777602#0-AddedOnRampEdge 663777602#0 663777602#1 418880841#0 418880841#5 418880841#6 418880841#7 1137982400 1137982398#0 1324641901"/>
    </vehicle>
    <vehicle id="7" depart="10.50">
        <route edges="-217753840 -26748566#6 -26748566#4 -26748566#3 -26748566#2 -26748566#1 -26748566#0 -33876640#7 184913373#0 184913373#1 184913373#2 184913373#3 184913373#4 184913373#5"/>
    </vehicle>
    <vehicle id="8" depart="12.00">
        <route edges="27189870#0 27189870#1 27189870#2 27189870#3 27189870#4 -27189869#0 -26524548#3 -26524548#2 -26524548#1 -26524548#0 -27189886#3 -27189886#2 -27189886#1 -27189886#0 -27189888#1 -27189888#0 -25466396#6 -25466396#5 -25466396#4 -25466396#2 -25466396#1 -25466396#0 25466477 -25459293#4 -25459293#3 -25459293#1 -1323786814 1388442483 209535276#1 -1131526942#16 -1131526942#15 -1131526942#14 -1131526942#13 -1131526942#12"/>
    </vehicle>
    <vehicle id="9" depart="13.50">
        <route edges="27189858#1 27189892#0 27189892#1 27190023 -33927962#3 -33927962#2 -33927962#1 426378532#3 1055338019#0 1055338019#3 1202063737#0 1202063737#1 1202063737#2 1202063737#3 -1049522243#1 -1049522243#0 25466413#0 25466413#1 25466413#2 25466413#3 25466413#4 25466477 -25459293#4 -25459293#3 -25459293#1 -1323786814 -1267322167 209514726#0 209514726#1 209514726#2 209535251#0 209535247#0 209535247#2 23163952"/>
    </vehicle>
    <vehicle id="10" depart="15.00">
        <route edges="-27189898#3 -27189898#2 -27346882#7 -27346882#6 -27346882#5 -27346882#4 -27346882#3 25466402#1 25466402#2 25466402#3 34549705#0 34549705#1 34549705#2 34549705#3 1268115264#0 27434060#0 27434060#1 27768215#1 26525083#10 -218226965"/>
    </vehicle>
    <vehicle id="11" depart="16.50">
        <route edges="412956333#4 25466339#4 25466339#5 27201854#0 27201854#1 27201854#2 27201854#3 -25466310#8 -25466310#6 -25466310#5 -25466310#4 -25466310#2 -25466310#1 -25466310#0 -101176398#6 25466266#0 25466266#1 25466266#2 25466266#3 25466266#4 25466266#5 25466266#6 25466266#7 34549705#0 34549705#1 34549705#2 34549705#3 1268115264#0 1268115264#1 1313198080 663777602#0-AddedOnRampEdge 663777602#0 663777602#1 -1193479865 -27346928#4 -27346928#3 -27346928#2 -27346928#0 27346929#0 27346929#1 27346929#3 27346929#4 27346929#6 27346929#7 27346929#8 68536153#0 68536153#1 68536153#2 68536153#3 -27461038"/>
    </vehicle>
    <vehicle id="12" depart="18.00">
        <route edges="-1280153710#0 -27434056 -27189857#2 -33927962#3 -33927962#2 -33927962#1 1363508013#2 1363508013#3 1363508013#4 1125360268#0 1125360268#1 1125360268#2 1125360268#3 1125360268#4 1114825837 1110246914 588367501#6 274724534#0 274724534#1 274724534#3 274724534#4 27190022#0 27190022#1 -184913358#4 -184913358#2 -206819363"/>
    </vehicle>
    <vehicle id="13" depart="19.50">
        <route edges="27200769 25466496#2 25466496#4 1296566889#0 1296566889#1 25466413#0 25466413#1 25466413#2 25466413#3 25466413#4 25466477 -28087774#3 -28087774#2 -28087774#1 -28087774#0 -26525766#3 -26525766#2 -26525766#1 -26525766#0 -25459372#3 26763953#0 26763953#1 26763953#2 26763953#3 1314888279 -1249828807 206812356#4"/>
    </vehicle>
    <vehicle id="14" depart="21.00">
        <route edges="27189863 -751761633 1125360268#4 1114825837 1110246914 588367501#6 274724531#0 274724531#1 274724531#2 274724531#2-AddedOffRampEdge 274724531#3 1384508872 1315064086#0 1315064086#1 1315064085#1 25459209#0 25459209#2 25459233#2 25459233#3"/>
    </vehicle>
    <vehicle id="15" depart="22.50">
        <route edges="-27201956#10 27201956#10 27201956#11 -214356685 -1323786814 -1267322167 209514726#0 209514726#1 209514726#2 209535251#0 209535247#0 209535247#2 209535247#3 1189127458#0 1189127458#1 1189127458#2 27191864#0 27191864#1 27191864#2 27191864#3 27191864#4 27191864#5 27191864#6 27191864#7 27191864#8 214356679 1313205070 209535277 1359489693#2-AddedOnRampEdge 1359489693#2"/>
    </vehicle>
    <vehicle id="16" depart="24.00">
        <route edges="27189973#0 -27189971 1211074477#0 1211074477#1 25466477 -25459293#4 -25459293#3 -25459293#1 -1323786814 1388442483 -1193903637#2 -23163948#0 -209513216#3 -209513216#0 209513216#0"/>
    </vehicle>
    <vehicle id="17" depart="25.50">
        <route edges="27346872#0 27346872#1 27346876#4 1270815079#0 1270815079#1 1270815079#2 1270815079#3 25466402#0 27346882#3 27346882#4 27346882#5 27346882#6 27189900#0 27189900#1 27189900#2 -27198626#0 1363508013#0 1363508013#1 1363508013#2 1363508013#3 1363508013#4 1125360268#0 1125360268#1 1125360268#2 1125360268#3 1125360268#4 1114825837 1110246914 588367501#6 274724531#0 274724531#1 274724531#2 274724531#2-AddedOffRampEdge 274724531#3 1384508872 1315064086#0 1315064086#1 27189815#0 184913336#0"/>
    </vehicle>
    <vehicle id="18" depart="27.00">
        <route edges="217754782 1281940343#1 1188050809#2 184913304 26748566#10 26748566#11 26748566#12 26748566#13 1151688948#0 1151688948#1 1151688948#2 1040143394#0 1281942588 418882860#1 418882860#2 836742076#0 836742076#1 836742076#2 836742076#3 588361833 1110246916 1123278059#0 1123278059#1 28632290#0 28632290#1 28632290#2 28632290#3 28632290#5 28632290#6 28632290#7 28632290#8 28632290#9 -1280153711"/>
    </vehicle>
    <vehicle id="19" depart="28.50">
        <route edges="-218221692 -27347309#1 -27347309#0 1421508960 1268115264#0 1268115264#1 663777607#0 663777607#1 -1267371252 588373916#2 588373916#3 663777606#0 663777606#1 663777606#2 1268115268 1268115267 58503040#0 58503040#1 58503040#2 58503040#3 101176398#0 101176398#2 101176398#3 101176398#4 101176398#6 25466310#0 25466310#1 25466310#2 25466310#4 25466310#5 25466310#6 25466310#7 25466310#10 25466310#12 25466310#14 25466310#15 25466310#16 25459576#0 25459576#1 27202021 25459949#0 27201956#0 27201956#2 27201956#3 -27202513#4"/>
    </vehicle>
    <vehicle id="20" depart="30.00">
        <route edges="-1269354622#0 -26748566#1 -26748566#0 26607757#0 26607757#1 26607757#2 383931208#0 383931208#1 383931208#2 -1388508386 26621212#0 26621212#1 26621212#3 26621212#4 26621212#5 26621212#6 26621212#7 26621212#8 -27189818#1"/>
    </vehicle>
    <vehicle id="21" depart="31.50">
        <route edges="-1304764385 25466280#0 25466280#1 25466280#3 25466280#4 25466280#5 32875901#0 32875901#2 32875901#3 32875901#4 1202063738#0 1202063738#1 1202063738#2 1202063738#3 1202063738#4 1202063738#5 27199953#0 27199953#1 27199953#2 27199953#3 1055338019#0 1055338019#3 -27198627#6 -27198627#5 -27198627#4"/>
    </vehicle>
    <vehicle id="22" depart="33.00">
        <route edges="-27200531 27189927 27189924#4 27189924#5 26886244#0 -28087774#2 -28087774#1 -28087774#0 -26525766#3 -26525766#2 -26525766#1 -26525766#0 1202063738#0 1202063738#1 1202063738#2 1202063738#3 1202063738#4 1202063738#5 26524548#0 26524548#1 26524548#2 -26524548#2"/>
    </vehicle>
    <vehicle id="23" depart="34.50">
        <route edges="-23698638#0 -28682074#6 1229033621#2 1270815079#0 1270815079#1 1270815079#2 1270815079#3 25466402#0 27346882#3 27346882#4 27346882#5 27346882#6 27189900#0 27189900#1 27189900#2 -27198626#0 1363508013#0 1363508013#1 1363508013#2 1363508013#3 1363508013#4 1125360268#0 1125360268#1 1125360268#2 1125360268#3 1125360268#4 1114825837 1110246914 588367501#6 274724531#0 274724531#1 274724531#2 274724531#2-AddedOffRampEdge 274724531#3 1384508872 1315064086#0 1315064084 28622115#0 28622115#1 28622115#2 28622115#4 28622115#5 28622115#6 28622115#7 28622115#9 28622115#10 28622115#12 28622115#13 28622115#14 -206812363#2 -206812363#1 33876064#0"/>
    </vehicle>
    <vehicle id="24" depart="36.00">
        <route edges="206819375#1 -1280152274 -206819375#0 27199953#1 27199953#2 27199953#3 1055338019#0 1055338019#3 -27198627#6 -27198627#5 -27198627#4 -27198627#3 -27198627#2 -27198627#1 -27189888#1 -27189888#0 -25466396#6 26886533#0 26886533#1 26886533#2 26886533#3 27200598#0 27200598#1 -27189832#4 -27189832#2 -27189832#0 26763953#0 26763953#1 26763953#2 206812369#1"/>
    </vehicle>
    <vehicle id="25" depart="37.50">
        <route edges="-206828310#0 -26748566#12 -26748566#11 -26748566#10 -26748566#9 -26748566#7 -26748566#6 -26748566#4 -26748566#3 -26748566#2 -26748566#1 -26748566#0 26607757#0 26607757#1 26607757#2 383931208#0 383931208#1 383931208#2 -1388508386 -33876670#4 -33876670#3 -33876670#2 -33876670#1 -33876670#0 -33876669 -26607712#3 -26607712#2 -26607712#1 -26607712#0 -25459210#13 -25459210#12 -25459210#11 -25459210#9 25459210#9"/>
    </vehicle>
    <vehicle id="26" depart="39.00">
        <route edges="-206812369#3 -206812369#2 32875901#3 32875901#4 1202063738#0 1202063738#1 1202063738#2 1202063738#3 1202063738#4 1202063738#5 27199953#0 27199953#1 27199953#2 27199953#3 1363508013#1 1363508013#2 1363508013#3 1363508013#4 1125360268#0 1125360268#1 1125360268#2 1125360268#3 1125360268#4 1114825837 1110246914 588367501#6 274724534#0 274724534#1 274724534#3 274724534#4 1363130879#0 1363130879#1 1363130879#2 1363130879#4 -383931208#7 -383931208#6 -383931208#5 -383931208#3"/>
    </vehicle>
    <vehicle id="27" depart="40.50">
        <route edges="995114828 27432184#1 27432453#6 1229033619#1 1229033619#2 1229033619#3 1229033619#4 1229033619#5 1268115264#0 1268115264#1 663777607#0 663777607#1 1040430248#1 1036789426 838093323 1049511450#0 1049511450#1 58502978#0 58502978#1 1210961436#0 1210961436#1 1210961436#2 588367501#0 588367501#1 588367501#2 588367501#3 588367501#4 588367501#5 588367501#6 274724531#0 274724531#1 274724531#2 274724531#2-AddedOffRampEdge 274724531#3 1384508872 1315064086#0 1315064084 28622115#0 28622115#1 28622115#2 28622115#4 28622115#5 28622115#6 28622115#7 28622115#9 28622115#10 28622115#12 28622115#13 28622115#14 -33876669 26619453#0 26619453#1 26619453#2 217745285"/>
    </vehicle>
    <vehicle id="28" depart="42.00">
        <route edges="1247149793 -206812369#2 32875901#3 32875901#4 1202063738#0 1202063738#1 1202063738#2 1202063738#3 1202063738#4 1202063738#5 27199953#0 27199953#1 27199953#2 27199953#3 1055338019#0 1055338019#3 1202063737#0 1202063737#1 1202063737#2 1202063737#3 1035888752 25466402#0 25466402#1 25466402#2 25466402#3 34549705#0 34549705#1 34549705#2 34549705#3 1268115264#0 27434060#0 -27347309#11 -27347309#10 218221705"/>
    </vehicle>
    <vehicle id="29" depart="43.50">
        <route edges="27198626#0 -27198626#0 1363508013#0 1363508013#1 1363508013#2 1363508013#3 1363508013#4 1125360268#0 1125360268#1 1125360268#2 1125360268#3 1125360268#4 1114825837 1110246914 588367501#6 274724531#0 274724531#1 274724531#2 274724531#2-AddedOffRampEdge 1374638135 1374638136 -215526706#9 -27189808#1 -27189808#0 27189806#1"/>
    </vehicle>
    <vehicle id="30" depart="45.00">
        <route edges="-218221699 27347309#5 27347309#6 27347309#7 27347309#8 27347309#9 27347309#10 27347309#11 -27434060#0 1268115264#1 663777607#0 663777607#1 1040430248#1 838093322 1110246916 1123278059#0 1123278059#1 28632290#0 28632290#1 28632290#2 28632290#3 28632290#5 28632290#6 28632290#7 28632290#8 28632290#9 28632290#10 -27198759#2 -27198759#1 -27198759#0 27434059 27198626#4 27199376#2 -1268550751"/>
    </vehicle>
    <vehicle id="31" depart="46.50">
        <route edges="-27189807 27189807 27189809#6 27189809#7 32875901#0 32875901#2 32875901#3 32875901#4 1202063738#0 1202063738#1 1202063738#2 1202063738#3 1202063738#4 1202063738#5 27199953#0 27199953#1 27199953#2 27199953#3 1055338019#0 1055338019#3 1202063737#0 1202063737#1 1202063737#2 1202063737#3 26524553#0 -27189977#2 27189978#0 27189978#2 -27189980"/>
    </vehicle>
    <vehicle id="32" depart="48.00">
        <route edges="-217750134#1 -217750134#0 -28681454#1 -28681454#0 274724531#1 274724531#2 274724531#2-AddedOffRampEdge 274724531#3 1384508872 1315064086#0 1315064086#1 1315064085#1 25459209#0 -25459210#25 -25459210#24 -25459210#22 -25459210#20 -25459210#19 -25459210#18 -25459210#16 -25459210#13 -25459210#12 -25459210#11 33876130"/>
    </vehicle>
    <vehicle id="33" depart="49.50">
        <route edges="27346929#0 27346929#1 -27346929#1 -27346929#0 27346928#0 27346928#2 27346928#3 27346928#4 1193479865 418880841#0 418880841#5 418880841#6 418880841#7 1137982400 1137982398#0 1137982398#1 102547886#1 102547886#2 102547886#3 102547886#4 102547886#5 1151688948#0 1151688948#1 1151688948#2 1040143394#0 1281942588 418882860#1 418882860#2 836742076#0 836742076#1 836742076#2 836742076#3 588361833 1036443392 588373916#0 1267371252 1040430248#1 27346902#0 -692053064#2 -692053064#1 -692053064#0 27346909#1 -27347309#11 -27347309#10 -27347309#9 -27347309#8 -27347309#7"/>
    </vehicle>
    <vehicle id="34" depart="51.00">
        <route edges="209535251#2-AddedOffRampEdge 1349708004#0 189500780 1323862825#0 209535247#2 209535247#3 1189127458#0 1189127458#1 1189127458#2 27191864#0 27191864#1 27191864#2 27191864#3 27191864#4 27191864#5 27191864#6 23186337#0 23186337#1 23186337#3 23186337#4 -995106086#2"/>
    </vehicle>
    <vehicle id="35" depart="52.50">
        <route edges="27945083#1 28655152#1 28655152#2 28655152#3 33876665#1 -28622115#2 -28622115#1 27189818#0 26621177#5 26621177#6 -1358566878 -215526706#9 -215526706#8 -215526706#7 -215526706#6 -215526706#5 -215526706#4 -215526706#2 -215526706#1 -1188777679#1 -1188777679#0 240514422#0 240514422#1 -26524548#2 -26524548#1 -26524548#0 27199953#0 27199953#1 27199953#2 27199953#3 1055338019#0 1055338019#3 1202063737#0 1202063737#1 1202063737#2 1202063737#3 1035888752 25466402#0 25466402#1 25466402#2 25466402#3 34549705#0 34549705#1 34549705#2 34549705#3 58503040#0 1229033619#4"/>
    </vehicle>
    <vehicle id="36" depart="54.00">
        <route edges="-23698633#11 23698633#11 23698633#12 23698633#13 1112202706#1 1421508960 1268115264#0 1268115264#1 663777607#0 663777607#1 1040430248#1 838093322 1110246916 1123278059#0 1123278059#1 1040454950#0 1040454950#1 1040454950#2 1040454950#3 1040454950#4 1144623265#0 1144623265#1 1303180229#0 1303180229#1 1303180229#2 1303180229#3 -1114825837 1125360269#0 1125360269#1 -27189884#2 -27189884#1 27189868#2 1229261875#0 -27189874 -27189870#3"/>
    </vehicle>
    <vehicle id="37" depart="55.50">
        <route edges="1296556832 206828306#1 -184913351#0 26748566#3 26748566#4 26748566#6 26748566#7 26748566#9 26748566#10 26748566#11 26748566#12 26748566#13 1151688948#0 1151688948#1 1151688948#2 1040143394#0 1281942588 418882860#1 418882860#2 836742076#0 836742076#1 836742076#2 1310172814 69610262#1 69610262#6 663777602#0-AddedOnRampEdge 663777602#0 663777602#1 418880841#0 418880841#5 418880841#6 418880841#7 1137982400 27461040#0 27461040#2 27454373#1 1218701043 27454372"/>
    </vehicle>
    <vehicle id="38" depart="57.00">
        <route edges="-27346928#2 27346928#2 27346928#3 27346928#4 1193479865 418880841#0 418880841#5 418880841#6 418880841#7 1137982400 1137982398#0 1137982398#1 102547886#1 102547886#2 102547886#3 102547886#4 102547886#5 -26748566#13 -26748566#12 -26748566#11 -26748566#10 -26748566#9 -26748566#7 -26748566#6 -26748566#4 -26748566#3 -26748566#2 -26748566#1 -26748566#0 26607757#0 26607757#1 26607757#2 383931208#0 383931208#1 383931208#2 -1388508386 26621212#0 26621212#1 26621212#3 26621212#4 -26621380#2 -26621380#1"/>
    </vehicle>
    <vehicle id="39" depart="58.50">
        <route edges="995150158 -1229257704#8 -1229257704#7 -1229257704#5 -1229257704#2 -1229257704#0 -1188072962#8 -1188072962#7 -1188072962#5 -1188072962#2 -1188072962#1 -1188072962#0 588367501#0 588367501#1 588367501#2 588367501#3 588367501#4 588367501#5 -1110246914 -1114825837 1125360269#0 1125360269#1 1125360269#2 1125360269#3 426378532#0 426378532#1 426378532#2 426378532#3 1055338019#0 1055338019#3 1202063737#0 1202063737#1 1202063737#2 1202063737#3 26524553#0 26524553#1 25466310#0 25466310#1 25466310#2 25466310#4 25466310#5 25466310#6 25466310#7 25466310#10 25466310#12 25466310#14 25466310#15 25466310#16 25459576#0 25459576#1 25466488#4 -1193709799#2 -1193709799#1 1270468039"/>
    </vehicle>
    <vehicle id="40" depart="60.00">
        <route edges="-1275903512#1 -1275903512#0 -28681454#0 274724531#1 -26621212#10 -26621212#9 -26621212#8 -26621212#7 -26621212#6 -26621212#5 -26621212#4 -26621212#3 -26621212#1 -26621212#0 1388508386 -383931208#2 -383931208#1 -383931208#0 -26607757#2 -26607757#1 -26607757#0 26748566#0 26748566#1 26748566#2 26748566#3 26748566#4 26748566#6 26748566#7 26748566#9 -184913304 -1188050809#2 -1188050809#1 -1281940343#0"/>
    </vehicle>
    <vehicle id="41" depart="61.50">
        <route edges="-1311473528 1311473527 -27461040#0 1137982398#0 1137982398#1 102547886#1 102547886#2 102547886#3 102547886#4 102547886#5 1151688948#0 1151688948#1 1151688948#2 1040143394#0 1281942588 418882860#1 418882860#2 1313198082 663777606#0 663777606#1 663777606#2 1268115268 1268115267 58503040#0 58503040#1 58503040#2 58503040#3 101176398#0 101176398#2 101176398#3 101176398#4 101176398#6 1270815079#2 1270815079#3 -1035888752 -1049522243#1 -1049522243#0 25466413#0 25466413#1 25466413#2 25466413#3 25466413#4 25466477 -25459293#4 -25459293#3 -25459293#1 -1323786814 -1267322167 209514726#0 209514726#1 209514726#2 209535251#0 209535247#0 209535247#2 209535247#3 1189127458#0 23164017 214356666"/>
    </vehicle>
    <vehicle id="42" depart="63.00">
        <route edges="27189806#1 26764010#0 27192062#0 27192062#1 -215526706#7 -215526706#6 -215526706#5 -215526706#4 -215526706#2 -215526706#1 -1188777679#1 -1188777679#0 240514422#0 240514422#1 -26524548#2 -26524548#1 -26524548#0 27199953#0 27199953#1 27199953#2 27199953#3 1055338019#0 1055338019#3"/>
    </vehicle>
    <vehicle id="43" depart="64.50">
        <route edges="-1268561135 -751761632#0 1125360269#3 426378532#0 426378532#1 426378532#2 426378532#3 1055338019#0 1055338019#3 1202063737#0 1202063737#1 1202063737#2 1202063737#3 26524553#0 26524553#1 25466310#0 25466310#1 25466310#2 25466310#4 25466310#5 25466310#6 25466310#7 -27201854#3 -27201854#2 412956332 -412956333#0"/>
    </vehicle>
    <vehicle id="44" depart="66.00">
        <route edges="995149296 -26748566#3 -26748566#2 -26748566#1 -26748566#0 26607757#0 26607757#1 26607757#2 383931208#0 383931208#1 383931208#2 -1388508386 26621212#0 26621212#1 26621212#3 26621212#4 26621212#5 26621212#6 26621212#7 26621212#8 26621212#9 26621212#10 274724531#2 274724531#2-AddedOffRampEdge 274724531#3 1384508872 1315064086#0 1315064086#1 1315064085#1 25459209#0 25459209#2 25459209#3 -214598755#2 -214598755#1 1452295040 -209513217 1452295041 72850475#1 27191864#2 27191864#3 27191864#4 27191864#5 27191864#6 27191864#7 23163959#0 23163959#1 -1369114213#4 -1369114213#3 1297984945#0 1297984945#1 1297984947"/>
    </vehicle>
    <vehicle id="45" depart="67.50">
        <route edges="692053064#1 -692053064#1 692053063 663777607#1 -1267371252 -27346899 27346895#9 27346898"/>
    </vehicle>
    <vehicle id="46" depart="69.00">
        <route edges="-1131526947 27189858#3 28632290#5 28632290#6 28632290#7 28632290#8 28632290#9 28632290#10 28632290#12 26524735#1 26524735#2 26524735#3 26524735#4 34549705#0 34549705#1 34549705#2 34549705#3 1391535377 30832653#1 30832653#2 -23698633#13 -23698633#12 -23698633#11 -23698633#10 23698633#9"/>
    </vehicle>
    <vehicle id="47" depart="70.50">
        <route edges="217747494 26748567#1 26748567#2 26748567#3 26748567#4 26748567#5 26748567#6 206812363#0 206812363#1 206812363#2 -28622115#14 -28622115#13 -28622115#12 -28622115#10 -28622115#9 -28622115#7 -28622115#6 -28622115#5 -28622115#4 -28622115#2 -28622115#1 -28622115#0 -1315064084 1315064086#1 1315064085#1 25459209#0 25459209#2 25459209#3 -214598755#2 -214598755#1 1452295040 -209513217 1452295041 72850475#1 27191864#2 -23163955#2 1311148802#0 1311148802#1 1311148805"/>
    </vehicle>
    <vehicle id="48" depart="72.00">
        <route edges="-23698636#4 -23698636#3 -23698636#2 -23698636#1 1238038906 1391532692 1229033619#1 1229033619#2 1229033619#3 1229033619#4 1229033619#5 1268115264#0 1268115264#1 663777607#0 663777607#1 1040430248#1 1036789426 838093323 1049511450#0 1049511450#1 58502978#0 58502978#1 1210961436#0 1210961436#1 1210961436#2 588367501#0 588367501#1 588367501#2 588367501#3 588367501#4 588367501#5 588367501#6 274724531#0 274724531#1 274724531#2 274724531#2-AddedOffRampEdge 274724531#3 1384508872 1315064086#0 1315064084 28622115#0 28622115#1 28622115#2 28622115#4 28622115#5 28622115#6 28622115#7 28622115#9 28622115#10 28622115#12 28622115#13 28622115#14 -206812363#2 -206812363#1 -206812363#0 -126856131#1 217745300"/>
    </vehicle>
    <vehicle id="49" depart="73.50">
        <route edges="-1322515344#1 -1322515344#0 1322515344#0 1322515344#1 -184913298#0 25459210#3 25459210#4 25459210#5 25459210#6 25459210#7 25459210#9 25459210#11 25459210#12 25459210#13 25459210#16 -692220582 1133045868"/>
    </vehicle>
    <vehicle id="50" depart="75.00">
        <route edges="-28682074#8 -28682074#6 1229033621#2 1270815079#0 1270815079#1 1270815079#2 1270815079#3 25466402#0 27346882#3 27346882#4 27346882#5 27346882#6 27189900#0 27189900#1 27189900#2 -27198626#0 1363508013#0 1363508013#1 1363508013#2 1363508013#3 1363508013#4 1125360268#0 1125360268#1 1125360268#2 1125360268#3 1125360268#4 1114825837 1110246914 588367501#6 274724534#0 274724534#1 274724534#3 274724534#4 1363130879#0 1363130879#1 1363130879#2 1363130879#4 -383931208#7 -383931208#6 -383931208#5 -383931208#3 -383931208#2 -383931208#1 383931208#1"/>
    </vehicle>
    <vehicle id="51" depart="76.50">
        <route edges="27346928#2 27346928#3 27346928#4 1193479865 418880841#0 418880841#5 418880841#6 418880841#7 1137982400 1137982398#0 1137982398#1 102547886#1 102547886#2 102547886#3 102547886#4 102547886#5 1151688948#0 1151688948#1 1151688948#2 1040143394#0 1281942588 418882860#1 418882860#2 836742076#0 836742076#1 836742076#2 836742076#3 588361833 1110246916 1123278059#0 1123278059#1 1040454950#0 1040454950#1 1040454950#2 1040454950#3 1040454950#4 1144623265#0 1144623265#1 1303180229#0 1303180229#1 1303180229#2 1303180229#3 -1114825837 1125360269#0 1125360269#1 1125360269#2 1125360269#3 426378532#0 426378532#1 426378532#2 426378532#3 1055338019#0 1055338019#3 -27198627#6 -27198627#5 -27198627#4 -27198627#3 -27198627#2 -27198627#1 -27189888#1 -27189888#0 -25466396#6 26886533#0 26886533#1 26886533#2 26886533#3 27200598#0 27200598#1 27200598#2 27200598#3 27200598#4 -27189960#4 -27189960#3 -27189960#2"/>
    </vehicle>
    <vehicle id="52" depart="78.00">
        <route edges="-995106086#2 995106086#2 -23186337#4 -23186337#3 -23186337#1 -23186337#0 27191864#7 27191864#8 214356679 1313205070 23610928#0 186797302#0 186797302#1 23164094#1 -23164031#1 -23164095"/>
    </vehicle>
    <vehicle id="53" depart="79.50">
        <route edges="27771557#2 -27771557#3 -27771557#1 27346912#0 27346912#1 27346912#2 27346912#3 58502978#0 58502978#1 588374658 28632290#0 28632290#1 28632290#2 28632290#3 28632290#5 28632290#6 28632290#7 28632290#8 28632290#9 28632290#10 28632290#12 26524735#1 26524735#2 26524735#3 26524735#4 34549705#0 34549705#1 34549705#2 -27346869#4 -27346869#3 27347301#2"/>
    </vehicle>
    <vehicle id="54" depart="81.00">
        <route edges="-26619453#5 -26619453#4 -26619453#3 -26619453#2 -26619453#1 -26619453#0 26607712#5 -28622115#14 -28622115#13 -28622115#12 -28622115#10 -28622115#9 -28653965#4 -28653965#3 -28653965#2 -28653965#1 217745279"/>
    </vehicle>
    <vehicle id="55" depart="82.50">
        <route edges="1369114213#0 1369114213#1 1369114213#2 1369114213#3 1369114213#4 1369114213#5 1369114214#0 1131526942#0 1131526942#1 1131526942#3 1131526942#4 1131526942#5 1131526942#6 1131526942#7 1131526942#8 1333243978 25459372#0 25459372#1 25459372#3 1202063738#0 1202063738#1 1202063738#2 1202063738#3 1202063738#4 1202063738#5 27199953#0 27199953#1 27199953#2 27199953#3 1055338019#0 1055338019#3 1202063737#0 1202063737#1 1202063737#2 1202063737#3 1035888752 25466402#0 25466402#1 25466402#2 25466402#3 34549705#0 34549705#1 34549705#2 34549705#3 1268115264#0 1268115264#1 1313198080 663777602#0-AddedOnRampEdge 663777602#0 663777602#1 -1193479865 -27346928#4 -27346928#3 -27346928#2 -27346928#0 27346929#0 27346929#1 27346929#3 27346929#4 27346929#6 27346929#7 27346929#8 68536153#0 68536153#1 68536153#2 -218221687"/>
    </vehicle>
    <vehicle id="56" depart="84.00">
        <route edges="25466396#5 26886533#0 26886533#1 26886533#2 26886533#3 28087774#0 28087774#1 28087774#2 28087774#3 -25459293#4 -25459293#3 -25459293#1 -1323786814 -1267322167 209514726#0 209514726#1 209514726#2 209535251#0 209535247#0 209535247#2 209535247#3 1189127458#0 1189127458#1 1189127458#2 27191864#0 27191864#1 27191864#2 -23163955#2 1311148802#0 1311148802#1 1311148808"/>
    </vehicle>
    <vehicle id="57" depart="85.50">
        <route edges="26621177#1 26621177#2 -184913313#0 -28622115#1 -28622115#0 1298017347"/>
    </vehicle>
    <vehicle id="58" depart="87.00">
        <route edges="-101176398#4 -101176398#3 -101176398#2 -101176398#0 58503040#4 58503040#5 58503040#6 58503040#7 58503040#8 1391532692 -27432453#6 -27432453#5 -27432453#4 -27432453#3 -27432453#2 -27432453#1"/>
    </vehicle>
    <vehicle id="59" depart="88.50">
        <route edges="-1188248472 418880841#5 418880841#6 418880841#7 1137982400 1137982398#0 1137982398#1 102547886#1 102547886#2 102547886#3 102547886#4 102547886#5 -26748566#13 -26748566#12 -26748566#11 -26748566#10 -26748566#9 -26748566#7 -26748566#6 -26748566#4 -26748566#3 -26748566#2 -26748566#1 -26748566#0 -33876640#7 -33876640#5 -27828326#1 -27828326#0 217747519 33560243"/>
    </vehicle>
    <vehicle id="60" depart="90.00">
        <route edges="27346939#0 -217754784#0 -68525928 1210961436#1 1210961436#2 588367501#0 588367501#1 588367501#2 588367501#3 588367501#4 588367501#5 588367501#6 -1040454951 1110246915#1 -1358566875 -26524548#8 206828301#0 206828301#1 27192384"/>
    </vehicle>
    <vehicle id="61" depart="91.50">