<?xml version="1.0" encoding="UTF-8"?>

<!-- generated on 2026-03-15T15:08:08.249058+05:30 by Eclipse SUMO polyconvert 1.26.0
<polyconvertConfiguration xmlns:xsi="http://www.w3.org/2001/XMLSchema-instance" xsi:noNamespaceSchemaLocation="http://sumo.dlr.de/xsd/polyconvertConfiguration.xsd">

    <input>
        <net-file value="C:\Fixed_timer\traffic_simulation\data\network\chennai.net.xml"/>
        <osm-files value="C:\Fixed_timer\traffic_simulation\data\osm\chennai.osm"/>
        <type-file value="C:\Program Files (x86)\Eclipse\Sumo\data\typemap\osmPolyconvert.typ.xml"/>
    </input>

    <output>
        <output-file value="C:\Fixed_timer\traffic_simulation\data\buildings\buildings.poly.xml"/>
    </output>

</polyconvertConfiguration>
-->

<additional xmlns:xsi="http://www.w3.org/2001/XMLSchema-instance" xsi:noNamespaceSchemaLocation="http://sumo.dlr.de/xsd/additional_file.xsd">
    <location netOffset="-413648.47,-1440619.03" convBoundary="-13129.00,-3025.49,8287.73,5482.13" origBoundary="80.082491,13.002911,80.280019,13.079828" projParameter="+proj=utm +zone=44 +ellps=WGS84 +datum=WGS84 +units=m +no_defs"/>

    <poly id="102550226" type="water" color="181,209,209" fill="0" layer="-4.00" shape="-1970.555353,3079.578168 -1947.084985,3101.932045 -1943.463397,3149.234226 -1937.850266,3154.934113 -1807.072020,3156.394582 -1581.934656,3169.973828 -1529.183035,3184.182865 -1504.106042,3203.888668 -1448.120917,3361.455525 -1387.294220,3466.683170 -1271.142652,3410.825696 -1223.723540,3398.652586 -1196.710140,3406.894544 -1139.677094,3489.008758 -1109.816455,3512.957677 -1054.018298,3503.534193 -948.242525,3403.328239 -910.385795,3381.110598 -833.468741,3370.824242 -799.568077,3362.709458 -701.748262,3365.551511 -657.962946,3380.210840 -630.853168,3418.966935 -638.068663,3489.263528 -634.267774,3515.142413 -606.319349,3524.299935 -557.976511,3509.360114 -514.466255,3437.090780 -481.942361,3422.190046 -297.800585,3443.772667 -86.497313,3503.714770 146.831285,3485.839321 254.847194,3417.560728 395.519153,3397.113371 452.359876,3384.581944 591.745999,3341.146439 614.195967,3325.659134 640.289023,3310.160488 693.973994,3297.362927 746.096552,3298.129569 799.333510,3360.838390 840.417677,3403.246266 866.213014,3414.026680 901.311565,3421.438154"/>
    <poly id="1095927862" type="building" color="255,230,230" fill="1" layer="-1.00" shape="2534.172226,2316.690511 2529.104946,2294.144206 2514.466056,2297.385065 2519.533348,2319.931369 2534.172226,2316.690511"/>
    <poly id="1095927863" type="building" color="255,230,230" fill="1" layer="-1.00" shape="2506.167953,2310.538198 2514.003534,2312.836848 2513.026682,2316.069252 2511.138282,2315.499905 2510.344949,2318.466317 2513.579069,2319.429712 2512.506891,2323.403405 2505.225779,2321.589691 2504.898607,2320.971346 2504.647369,2320.363830 2504.600694,2319.280123 2504.783032,2318.627046 2505.215632,2318.260758 2505.213980,2317.718839 2504.562772,2317.510690 2503.974294,2316.539232 2503.719954,2314.914234 2504.116182,2313.287253 2504.688423,2312.489212 2505.196720,2312.056335 2505.814085,2311.833259 2506.167953,2310.538198"/>
    <poly id="1095927864" type="building" color="255,230,230" fill="1" layer="-1.00" shape="2494.816958,2328.821273 2487.793260,2297.632267 2501.153472,2294.649663 2504.274968,2308.464748 2500.720923,2309.260819 2504.633955,2326.634709 2494.816958,2328.821273"/>
    <poly id="1095927865" type="building" color="255,230,230" fill="1" layer="-1.00" shape="2493.527172,2328.991100 2486.634193,2298.000770 2475.722704,2300.400811 2482.615695,2331.391139 2493.527172,2328.991100"/>
    <poly id="1095927866" type="building" color="255,230,230" fill="1" layer="-1.00" shape="2476.879290,2309.886491 2479.330282,2320.717505 2473.435746,2322.029461 2473.259968,2321.277939 2471.569638,2321.659123 2471.151946,2319.802370 2469.114849,2320.250969 2465.388921,2303.794466 2470.904198,2302.561082 2471.772449,2306.385084 2475.012255,2305.656326 2476.012439,2310.077148 2476.879290,2309.886491"/>
    <poly id="1095927867" type="building" color="255,230,230" fill="1" layer="-1.00" shape="2438.085500,2310.579911 2438.525083,2312.502955 2437.322342,2312.772056 2438.586437,2318.397578 2439.940909,2318.105894 2440.347592,2319.907382 2464.500032,2314.536127 2462.400523,2305.186040 2438.085500,2310.579911"/>
    <poly id="1095927868" type="building" color="255,230,230" fill="1" layer="-1.00" shape="2522.796825,2270.042267 2535.734014,2267.005672 2529.132759,2239.221752 2515.328737,2242.460065 2517.865955,2253.124924 2516.522389,2253.438690 2518.169810,2260.323850 2521.983787,2259.427452 2522.115653,2260.002154 2520.501185,2260.372043 2522.796825,2270.042267"/>
    <poly id="1095927869" type="building" color="255,230,230" fill="1" layer="-1.00" shape="2442.049952,2327.024624 2465.930170,2321.278172 2468.799836,2334.286666 2463.284363,2335.453693 2456.191495,2342.033716 2445.292744,2330.830323 2443.114793,2331.312533 2442.049952,2327.024624"/>
    <poly id="1095927870" type="building" color="255,230,230" fill="1" layer="-1.00" shape="2372.476653,2307.539648 2390.873995,2302.982196 2385.407806,2281.222365 2367.021293,2285.779786 2372.476653,2307.539648"/>
    <poly id="1095927871" type="building" color="255,230,230" fill="1" layer="-1.00" shape="2399.171348,2300.258309 2417.589743,2295.490678 2415.362769,2287.014697 2408.417961,2288.816498 2403.700807,2270.892088 2390.071344,2274.472783 2390.751565,2277.080792 2392.950935,2276.510036 2399.171348,2300.258309"/>
    <poly id="1095927872" type="building" color="255,230,230" fill="1" layer="-1.00" shape="2390.071344,2274.472783 2388.771253,2274.819602 2385.579196,2262.774291 2405.655048,2257.503908 2405.973270,2258.741621 2434.738190,2251.188570 2436.657682,2258.393627 2437.206233,2260.493294 2429.297249,2262.574522 2429.483770,2263.292832 2408.291952,2268.843095 2408.160387,2268.367930 2403.371641,2269.621229 2403.700807,2270.892088 2390.071344,2274.472783"/>
    <poly id="1095927873" type="building" color="255,230,230" fill="1" layer="-1.00" shape="2434.738190,2251.188570 2465.452203,2242.766952 2468.231862,2254.702931 2447.342888,2260.008926 2446.170393,2255.975719 2436.657682,2258.393627 2434.738190,2251.188570"/>
    <poly id="1095927874" type="building" color="255,230,230" fill="1" layer="-1.00" shape="2440.231772,2246.394030 2386.436596,2259.486948 2384.098076,2249.993818 2397.056612,2246.846495 2396.639521,2245.188816 2437.487092,2235.265303 2440.231772,2246.394030"/>
    <poly id="1095927875" type="building" color="255,230,230" fill="1" layer="-1.00" shape="2384.098076,2249.993818 2381.942176,2250.597622 2379.022840,2239.093403 2381.395192,2238.356222 2371.932590,2203.912076 2370.394931,2204.580352 2366.047673,2194.175402 2397.755100,2180.829119 2402.461782,2191.763841 2383.033712,2199.686570 2396.639521,2245.188816 2397.056612,2246.846495 2384.098076,2249.993818"/>
    <poly id="1095927876" type="building" color="255,230,230" fill="1" layer="-1.00" shape="2441.314145,2242.210169 2435.198780,2217.344540 2461.700970,2210.904391 2467.816312,2235.770025 2441.314145,2242.210169"/>
    <poly id="110566014" type="building" color="255,230,230" fill="1" layer="-1.00" shape="2577.822388,787.358693 2567.572777,790.099494 2570.467871,800.752205 2580.717445,798.000345 2577.822388,787.358693"/>
    <poly id="1123054296" type="amenity" color="237,199,199" fill="1" layer="-1.00" shape="2550.464909,2514.609147 2551.156548,2481.826145 2532.418925,2481.429796 2531.727308,2514.212799 2550.464909,2514.609147"/>
    <poly id="1123054296#1" type="building" color="255,230,230" fill="1" layer="-1.00" shape="2550.464909,2514.609147 2551.156548,2481.826145 2532.418925,2481.429796 2531.727308,2514.212799 2550.464909,2514.609147"/>
    <poly id="1126048185" type="building" color="255,230,230" fill="1" layer="-1.00" shape="3045.814254,998.007861 3039.430832,974.027720 3097.938748,958.643720 3107.842814,995.840576 3106.141753,996.288105 3109.410340,1008.609739 3105.033091,1009.762118 3094.274156,1012.592743 3088.867598,1014.013669 3083.822285,995.050557 3079.184996,996.270084 3077.441008,989.694863 3045.814254,998.007861"/>
    <poly id="1126048185#1" type="shop" color="237,199,255" fill="1" layer="-1.00" shape="3045.814254,998.007861 3039.430832,974.027720 3097.938748,958.643720 3107.842814,995.840576 3106.141753,996.288105 3109.410340,1008.609739 3105.033091,1009.762118 3094.274156,1012.592743 3088.867598,1014.013669 3083.822285,995.050557 3079.184996,996.270084 3077.441008,989.694863 3045.814254,998.007861"/>
    <poly id="1126048187" type="building" color="255,230,230" fill="1" layer="-1.00" shape="3119.446421,1006.986808 3116.950588,995.613967 3128.729672,993.067819 3131.225533,1004.451720 3119.446421,1006.986808"/>
    <poly id="1126048188" type="building" color="255,230,230" fill="1" layer="-1.00" shape="3116.338649,994.056405 3113.007455,978.958987 3124.981558,976.356949 3128.312712,991.443310 3116.338649,994.056405"/>
    <poly id="1126048189" type="building" color="255,230,230" fill="1" layer="-1.00" shape="3112.569644,977.611032 3109.249290,962.513581 3121.212556,959.911575 3124.543714,974.997935 3112.569644,977.611032"/>
    <poly id="1126048190" type="building" color="255,230,230" fill="1" layer="-1.00" shape="3108.947292,959.462029 3106.462295,948.089157 3118.241398,945.543005 3120.726390,956.915878 3108.947292,959.462029"/>
    <poly id="1126048191" type="residential" color="235,235,227" fill="1" layer="-3.00" shape="3135.436411,1005.655554 3121.456951,943.907516 3104.249220,947.752998 3118.239561,1009.500998 3135.436411,1005.655554"/>
    <poly id="1126048192" type="building" color="255,230,230" fill="1" layer="-1.00" shape="3040.422410,1086.711571 3034.521693,1064.576932 3009.644706,1070.989411 2999.319500,1073.807703 3005.394039,1096.041347 3040.422410,1086.711571"/>
    <poly id="1126048192#1" type="shop" color="237,199,255" fill="1" layer="-1.00" shape="3040.422410,1086.711571 3034.521693,1064.576932 3009.644706,1070.989411 2999.319500,1073.807703 3005.394039,1096.041347 3040.422410,1086.711571"/>
    <poly id="1126048193" type="parking" color="184,184,179" fill="1" layer="-1.00" shape="3034.521693,1064.576932 3030.177348,1047.934235 3005.289470,1054.335690 3009.644706,1070.989411 3034.521693,1064.576932"/>
    <poly id="1126048194" type="parking" color="184,184,179" fill="1" layer="-1.00" shape="3040.422410,1086.711571 3044.599912,1101.972318 3009.418481,1110.882285 3005.394039,1096.041347 3040.422410,1086.711571"/>
    <poly id="1126048195" type="building" color="255,230,230" fill="1" layer="-1.00" shape="3044.599912,1101.972318 3050.097239,1123.389301 3013.084698,1132.758253 3007.587342,1111.341275 3009.418481,1110.882285 3044.599912,1101.972318"/>
    <poly id="1126048196" type="building" color="255,230,230" fill="1" layer="-1.00" shape="3002.410785,1131.419168 2995.073759,1096.902066 2977.020162,1100.683838 2984.357244,1135.211997 3002.410785,1131.419168"/>
    <poly id="1126048196#1" type="shop" color="237,199,255" fill="1" layer="-1.00" shape="3002.410785,1131.419168 2995.073759,1096.902066 2977.020162,1100.683838 2984.357244,1135.211997 3002.410785,1131.419168"/>
    <poly id="1126048197" type="building" color="255,230,230" fill="1" layer="-1.00" shape="2982.883466,1135.515070 2978.838255,1117.400538 2977.332013,1117.725830 2973.385725,1100.053385 2972.052875,1100.344972 2970.360034,1092.763173 2962.948128,1094.400332 2960.694740,1084.331807 2945.621665,1087.651126 2955.064078,1129.892543 2953.438662,1130.251376 2955.944895,1141.458280 2982.883466,1135.515070"/>
    <poly id="1126048197#1" type="shop" color="237,199,255" fill="1" layer="-1.00" shape="2982.883466,1135.515070 2978.838255,1117.400538 2977.332013,1117.725830 2973.385725,1100.053385 2972.052875,1100.344972 2970.360034,1092.763173 2962.948128,1094.400332 2960.694740,1084.331807 2945.621665,1087.651126 2955.064078,1129.892543 2953.438662,1130.251376 2955.944895,1141.458280 2982.883466,1135.515070"/>
    <poly id="1126048198" type="building" color="255,230,230" fill="1" layer="-1.00" shape="2998.459531,1176.565602 2994.534576,1155.188104 2984.336608,1157.043828 2988.261572,1178.421325 2998.459531,1176.565602"/>
    <poly id="1126048198#1" type="tourism" color="207,245,201" fill="1" layer="-2.00" shape="2998.459531,1176.565602 2994.534576,1155.188104 2984.336608,1157.043828 2988.261572,1178.421325 2998.459531,1176.565602"/>
    <poly id="1127413856" type="parking" color="184,184,179" fill="1" layer="-1.00" shape="2939.521456,1253.796777 2955.879064,1252.165686 2981.689203,1249.599083 2977.128312,1204.423123 2931.383304,1208.985569 2933.641532,1231.385600 2937.218721,1231.020852 2939.521456,1253.796777"/>
    <poly id="1127413856#1" type="building" color="255,230,230" fill="1" layer="-1.00" shape="2939.521456,1253.796777 2955.879064,1252.165686 2981.689203,1249.599083 2977.128312,1204.423123 2931.383304,1208.985569 2933.641532,1231.385600 2937.218721,1231.020852 2939.521456,1253.796777"/>
    <poly id="1127413857" type="building" color="255,230,230" fill="1" layer="-1.00" shape="2988.268282,1277.316788 2985.985734,1254.032055 2956.317428,1257.273922 2955.879064,1252.165686 2939.521456,1253.796777 2936.323615,1254.105078 2938.296057,1282.389717 2988.268282,1277.316788"/>
    <poly id="1127413858" type="building" color="255,230,230" fill="1" layer="-1.00" shape="3038.378160,1253.231980 3040.686023,1252.649893 3088.743221,1241.787686 3082.948763,1215.328391 3057.268705,1221.477832 3056.819147,1219.831304 3053.998006,1208.459451 3029.022588,1214.551488 3036.829922,1246.844183 3038.378160,1253.231980"/>
    <poly id="1127413858#1" type="shop" color="237,199,255" fill="1" layer="-1.00" shape="3038.378160,1253.231980 3040.686023,1252.649893 3088.743221,1241.787686 3082.948763,1215.328391 3057.268705,1221.477832 3056.819147,1219.831304 3053.998006,1208.459451 3029.022588,1214.551488 3036.829922,1246.844183 3038.378160,1253.231980"/>
    <poly id="1127413859" type="amenity" color="237,199,199" fill="1" layer="-1.00" shape="3036.829922,1246.844183 3000.235749,1254.663543 2993.621027,1222.334066 3029.022588,1214.551488 3036.829922,1246.844183"/>
    <poly id="1127413860" type="building" color="255,230,230" fill="1" layer="-1.00" shape="3056.819147,1219.831304 3082.227892,1213.605265 3079.406727,1202.222351 3076.383776,1202.994612 3053.998006,1208.459451 3056.819147,1219.831304"/>
    <poly id="1127413860#1" type="shop" color="237,199,255" fill="1" layer="-1.00" shape="3056.819147,1219.831304 3082.227892,1213.605265 3079.406727,1202.222351 3076.383776,1202.994612 3053.998006,1208.459451 3056.819147,1219.831304"/>
    <poly id="1127413861" type="building" color="255,230,230" fill="1" layer="-1.00" shape="3029.022588,1214.551488 3026.080518,1202.638080 3073.452637,1191.103286 3076.383776,1202.994612 3053.998006,1208.459451 3029.022588,1214.551488"/>
    <poly id="1127413861#1" type="shop" color="237,199,255" fill="1" layer="-1.00" shape="3029.022588,1214.551488 3026.080518,1202.638080 3073.452637,1191.103286 3076.383776,1202.994612 3053.998006,1208.459451 3029.022588,1214.551488"/>
    <poly id="1127413862" type="parking" color="184,184,179" fill="1" layer="-1.00" shape="3026.743091,1199.428773 3073.476334,1188.183465 3072.059993,1182.381429 3038.101735,1190.557728 3037.574232,1188.236796 3034.224337,1174.134809 3021.308137,1177.126832 3026.743091,1199.428773"/>
    <poly id="1127413862#1" type="building" color="255,230,230" fill="1" layer="-1.00" shape="3026.743091,1199.428773 3073.476334,1188.183465 3072.059993,1182.381429 3038.101735,1190.557728 3037.574232,1188.236796 3034.224337,1174.134809 3021.308137,1177.126832 3026.743091,1199.428773"/>
    <poly id="1127413863" type="building" color="255,230,230" fill="1" layer="-1.00" shape="3065.898561,1181.581654 3037.574232,1188.236796 3034.224337,1174.134809 3044.507238,1171.681625 3061.616864,1167.714737 3062.548714,1167.490724 3065.898561,1181.581654"/>
    <poly id="1127413863#1" type="shop" color="237,199,255" fill="1" layer="-1.00" shape="3065.898561,1181.581654 3037.574232,1188.236796 3034.224337,1174.134809 3044.507238,1171.681625 3061.616864,1167.714737 3062.548714,1167.490724 3065.898561,1181.581654"/>
    <poly id="1127413864" type="building" color="255,230,230" fill="1" layer="-1.00" shape="3061.616864,1167.714737 3054.885299,1139.754168 3038.338033,1143.232733 3044.507238,1171.681625 3061.616864,1167.714737"/>
    <poly id="1127413865" type="building" color="255,230,230" fill="1" layer="-1.00" shape="3033.694255,1170.962292 3029.299755,1152.074635 3036.635611,1150.393484 3041.030107,1169.281142 3033.694255,1170.962292"/>
    <poly id="1127413866" type="building" color="255,230,230" fill="1" layer="-1.00" shape="3025.347764,1157.583246 3028.192985,1169.740260 3020.423739,1171.533321 3017.567672,1159.376341 3025.347764,1157.583246"/>
    <poly id="1127413867" type="building" color="255,230,230" fill="1" layer="-1.00" shape="3003.936404,1176.891869 3000.836487,1162.988203 2999.232692,1163.324848 2996.945051,1152.681322 3013.416339,1149.180842 3018.684305,1173.628862 3003.936404,1176.891869"/>
    <poly id="1127413868" type="building" color="255,230,230" fill="1" layer="-1.00" shape="3008.006057,1195.924282 3020.381357,1193.354157 3016.794606,1176.233602 2997.678959,1180.195534 2999.065298,1186.827132 3005.805602,1185.424267 3008.006057,1195.924282"/>
    <poly id="1127413869" type="building" color="255,230,230" fill="1" layer="-1.00" shape="2991.295209,1199.082643 3004.537798,1196.454587 3002.831281,1187.932756 2989.577845,1190.560846 2991.295209,1199.082643"/>
    <poly id="1127413870" type="building" color="255,230,230" fill="1" layer="-1.00" shape="3023.509204,1205.742568 3020.917362,1194.900887 3006.430145,1198.306880 3009.022026,1209.159619 3023.509204,1205.742568"/>
    <poly id="1127413871" type="building" color="255,230,230" fill="1" layer="-1.00" shape="3088.743221,1241.787686 3096.688055,1276.546282 3071.591979,1282.163084 3062.099700,1284.293138 3057.955998,1265.858164 3044.411136,1268.918438 3040.686023,1252.649893 3088.743221,1241.787686"/>
    <poly id="1127413872" type="building" color="255,230,230" fill="1" layer="-1.00" shape="3071.591979,1282.163084 3072.449024,1285.887596 3081.139442,1283.936925 3083.699895,1295.165793 3075.237020,1297.060476 3075.896477,1299.989291 3066.154978,1302.175396 3062.099700,1284.293138 3071.591979,1282.163084"/>
    <poly id="1127416922" type="building" color="255,230,230" fill="1" layer="-1.00" shape="3130.925802,1145.640192 3141.112000,1143.474889 3150.951417,1141.376995 3147.850337,1127.064113 3155.999282,1125.325239 3151.985378,1106.768208 3142.167635,1108.866034 3135.063406,1075.973971 3116.717414,1079.889250 3117.046323,1081.082698 3126.845921,1126.784752 3130.925802,1145.640192"/>
    <poly id="1127416922#1" type="shop" color="237,199,255" fill="1" layer="-1.00" shape="3130.925802,1145.640192 3141.112000,1143.474889 3150.951417,1141.376995 3147.850337,1127.064113 3155.999282,1125.325239 3151.985378,1106.768208 3142.167635,1108.866034 3135.063406,1075.973971 3116.717414,1079.889250 3117.046323,1081.082698 3126.845921,1126.784752 3130.925802,1145.640192"/>
    <poly id="1127416923" type="building" color="255,230,230" fill="1" layer="-1.00" shape="3107.817031,1148.696164 3121.990332,1145.457071 3119.536880,1133.752312 3105.471102,1136.692470 3107.817031,1148.696164"/>
    <poly id="1127416923#1" type="shop" color="237,199,255" fill="1" layer="-1.00" shape="3107.817031,1148.696164 3121.990332,1145.457071 3119.536880,1133.752312 3105.471102,1136.692470 3107.817031,1148.696164"/>
    <poly id="1127416924" type="building" color="255,230,230" fill="1" layer="-1.00" shape="3107.817031,1148.696164 3104.327747,1149.447712 3101.212214,1137.534823 3105.471102,1136.692470 3107.817031,1148.696164"/>
    <poly id="1127416925" type="building" color="255,230,230" fill="1" layer="-1.00" shape="3101.212214,1137.534823 3088.253221,1140.726016 3090.216037,1147.953095 3091.153841,1149.697685 3092.544786,1150.688847 3094.682243,1151.124770 3097.436227,1151.050083 3104.327747,1149.447712 3101.212214,1137.534823"/>
    <poly id="1127416926" type="building" color="255,230,230" fill="1" layer="-1.00" shape="3119.089865,1132.946309 3117.597495,1127.100262 3124.477545,1125.287798 3114.260372,1081.345493 3094.263901,1084.502661 3080.848462,1087.363446 3081.289318,1089.717819 3082.457202,1095.830278 3089.196830,1094.195184 3094.772970,1116.585186 3081.097342,1119.457818 3081.225817,1122.498836 3081.113064,1124.655810 3081.109580,1127.088945 3081.835939,1130.625838 3083.266374,1133.917290 3085.020098,1136.544184 3087.773475,1139.853754 3101.210541,1136.981845 3104.916558,1136.185403 3119.089865,1132.946309"/>
    <poly id="1127416926#1" type="shop" color="237,199,255" fill="1" layer="-1.00" shape="3119.089865,1132.946309 3117.597495,1127.100262 3124.477545,1125.287798 3114.260372,1081.345493 3094.263901,1084.502661 3080.848462,1087.363446 3081.289318,1089.717819 3082.457202,1095.830278 3089.196830,1094.195184 3094.772970,1116.585186 3081.097342,1119.457818 3081.225817,1122.498836 3081.113064,1124.655810 3081.109580,1127.088945 3081.835939,1130.625838 3083.266374,1133.917290 3085.020098,1136.544184 3087.773475,1139.853754 3101.210541,1136.981845 3104.916558,1136.185403 3119.089865,1132.946309"/>
    <poly id="1127416927" type="building" color="255,230,230" fill="1" layer="-1.00" shape="3080.207533,1090.561625 3069.629321,1092.186213 3075.352022,1120.006060 3081.474749,1118.759919 3093.590185,1116.301212 3089.177050,1094.825644 3082.144052,1096.262551 3080.207533,1090.561625"/>
    <poly id="1127416928" type="building" color="255,230,230" fill="1" layer="-1.00" shape="3066.629219,1089.762164 3063.450380,1074.852302 3087.431462,1069.791860 3088.311466,1073.936570 3091.551565,1073.252132 3093.850385,1084.017286 3080.293984,1086.878498 3066.629219,1089.762164"/>
    <poly id="1127416928#1" type="shop" color="237,199,255" fill="1" layer="-1.00" shape="3066.629219,1089.762164 3063.450380,1074.852302 3087.431462,1069.791860 3088.311466,1073.936570 3091.551565,1073.252132 3093.850385,1084.017286 3080.293984,1086.878498 3066.629219,1089.762164"/>
    <poly id="1127416929" type="building" color="255,230,230" fill="1" layer="-1.00" shape="3060.377719,1073.534439 3057.013971,1058.437123 3083.757628,1052.549907 3087.121395,1067.658284 3060.377719,1073.534439"/>
    <poly id="1127416929#1" type="shop" color="237,199,255" fill="1" layer="-1.00" shape="3060.377719,1073.534439 3057.013971,1058.437123 3083.757628,1052.549907 3087.121395,1067.658284 3060.377719,1073.534439"/>
    <poly id="113676165" type="landuse" color="194,194,130" fill="1" layer="-3.00" shape="972.519967,760.890620 966.108000,756.287543 966.517832,703.111207 1028.759337,702.918297 1027.189053,759.570967 972.519967,760.890620"/>
    <poly id="1150643267" type="building" color="255,230,230" fill="1" layer="-1.00" shape="2550.849282,2366.740048 2576.411662,2361.497311 2576.565785,2362.259960 2578.810519,2373.025250 2579.074754,2374.340548 2553.512386,2379.583283 2550.849282,2366.740048"/>
    <poly id="1150643268" type="building" color="255,230,230" fill="1" layer="-1.00" shape="2576.565785,2362.259960 2581.127765,2361.317053 2583.394149,2372.071218 2578.810519,2373.025250 2576.565785,2362.259960"/>
    <poly id="1150643268#1" type="shop" color="237,199,255" fill="1" layer="-1.00" shape="2576.565785,2362.259960 2581.127765,2361.317053 2583.394149,2372.071218 2578.810519,2373.025250 2576.565785,2362.259960"/>
    <poly id="1150643269" type="building" color="255,230,230" fill="1" layer="-1.00" shape="2554.262127,2383.662021 2580.051886,2378.319056 2582.560617,2390.322227 2556.781711,2395.665157 2554.262127,2383.662021"/>
    <poly id="1150643270" type="building" color="255,230,230" fill="1" layer="-1.00" shape="2561.005887,2401.292725 2583.685104,2396.401626 2585.908586,2407.310758 2563.086838,2411.682485 2561.005887,2401.292725"/>
    <poly id="1150643271" type="building" color="255,230,230" fill="1" layer="-1.00" shape="2562.203869,2417.259254 2586.706105,2412.838169 2588.988581,2425.317596 2564.486356,2429.738679 2562.203869,2417.259254"/>
    <poly id="1177170709" type="man_made" color="255,230,230" fill="1" layer="-1.00" shape="3306.229143,2603.946059 3305.494959,2597.799103 3304.638299,2590.590789 3109.713547,2614.272682 3047.290423,2620.997963 3036.569606,2621.882034 3028.199069,2621.907394 3022.484950,2621.913648 3009.679292,2621.797617 3002.859021,2621.740869 2970.970604,2621.793295 2868.669627,2621.970936 2830.556065,2621.566856 2795.650753,2620.765992 2751.850006,2618.532335 2677.029506,2613.207922 2675.949060,2621.594446 2676.038217,2625.951688 2729.776466,2630.001972 2750.783557,2631.530697 2773.449237,2632.943801 2797.274071,2634.021612 2832.776149,2634.964440 2868.666208,2635.131958 2924.819457,2634.662943 2972.072987,2634.917783 3011.476224,2635.130135 3025.550366,2635.209144 3036.185910,2634.811951 3045.128827,2634.032802 3059.718727,2632.561912 3306.229143,2603.946059"/>
    <poly id="118695817" type="school" color="237,199,199" fill="1" layer="-2.00" shape="963.318170,797.272405 999.968967,797.158781 1012.368454,809.374505 994.821169,826.073748 962.834898,826.759081 963.318170,797.272405"/>
    <poly id="1188033391" type="building" color="255,230,230" fill="1" layer="-1.00" shape="2937.971627,2069.695083 2961.434942,2065.819429 2995.193689,2267.710894 2971.741388,2271.586497 2937.971627,2069.695083"/>
    <poly id="1188033392" type="building" color="255,230,230" fill="1" layer="-1.00" shape="3162.388833,1294.905758 3127.067595,1268.259212 3224.046304,1141.344203 3259.367596,1167.990874 3162.388833,1294.905758"/>
    <poly id="1228836450" type="building" color="255,230,230" fill="1" layer="-1.00" shape="2721.993432,2413.167494 2709.112596,2416.889533 2705.299530,2403.817531 2718.180372,2400.095491 2721.993432,2413.167494"/>
    <poly id="1228864283" type="amenity" color="237,199,199" fill="1" layer="-1.00" shape="1435.663056,2937.279974 1447.442380,2935.120133 1447.210092,2930.121861 1435.014785,2931.000060 1435.663056,2937.279974"/>
    <poly id="1228864283#1" type="building" color="255,230,230" fill="1" layer="-1.00" shape="1435.663056,2937.279974 1447.442380,2935.120133 1447.210092,2930.121861 1435.014785,2931.000060 1435.663056,2937.279974"/>
    <poly id="1234649361" type="building" color="255,230,230" fill="1" layer="-1.00" shape="601.307386,3243.271136 601.757601,3252.040101 584.347178,3252.923898 583.896957,3244.154933 601.307386,3243.271136"/>
    <poly id="1234649400" type="building" color="255,230,230" fill="1" layer="-1.00" shape="2097.630433,2661.438659 2100.520277,2642.053224 2111.432992,2643.645569 2108.543174,2663.042062 2097.630433,2661.438659"/>
    <poly id="1234649401" type="building" color="255,230,230" fill="1" layer="-1.00" shape="2092.869677,2572.710270 2089.154563,2591.700085 2082.894564,2590.491640 2086.609675,2571.501824 2092.869677,2572.710270"/>
    <poly id="1234649402" type="building" color="255,230,230" fill="1" layer="-1.00" shape="2108.183406,2573.913102 2103.837473,2595.813546 2091.740479,2593.439594 2096.075527,2571.528121 2108.183406,2573.913102"/>
    <poly id="1234649403" type="building" color="255,230,230" fill="1" layer="-1.00" shape="2177.063873,2590.358090 2187.859464,2592.647585 2184.149682,2609.856757 2173.354097,2607.567264 2177.063873,2590.358090"/>
    <poly id="1234649404" type="building" color="255,230,230" fill="1" layer="-1.00" shape="2366.762495,2527.722237 2361.224865,2553.574574 2347.738529,2550.718125 2353.287023,2524.876812 2366.762495,2527.722237"/>
    <poly id="1234649405" type="building" color="255,230,230" fill="1" layer="-1.00" shape="2359.341631,2220.916071 2373.448609,2217.466620 2377.367881,2233.303181 2363.260878,2236.741571 2359.341631,2220.916071"/>
    <poly id="1234649406" type="building" color="255,230,230" fill="1" layer="-1.00" shape="2577.493947,2065.315838 2593.318176,2063.166319 2595.835270,2081.473480 2588.064050,2082.525690 2587.598210,2079.098608 2579.545176,2080.184857 2577.493947,2065.315838"/>
    <poly id="1234649407" type="building" color="255,230,230" fill="1" layer="-1.00" shape="2746.424584,2121.350072 2748.180226,2131.751889 2722.993913,2135.942639 2721.238261,2125.540822 2746.424584,2121.350072"/>
    <poly id="1234649408" type="building" color="255,230,230" fill="1" layer="-1.00" shape="2810.383722,2320.130343 2831.421785,2317.500612 2833.054830,2330.391232 2812.016742,2333.009902 2810.383722,2320.130343"/>
    <poly id="1234649409" type="building" color="255,230,230" fill="1" layer="-1.00" shape="3089.026102,2721.890591 3090.923294,2739.701975 3080.929481,2740.749725 3079.021440,2722.938375 3089.026102,2721.890591"/>
    <poly id="1234649410" type="building" color="255,230,230" fill="1" layer="-1.00" shape="2484.956106,2643.764732 2486.602318,2632.478835 2537.162567,2639.723623 2535.516335,2651.009517 2484.956106,2643.764732"/>
    <poly id="1235725877" type="building" color="255,230,230" fill="1" layer="-1.00" shape="1410.869427,3373.573786 1409.754905,3363.778323 1428.560095,3361.652049 1429.674611,3371.447512 1410.869427,3373.573786"/>
    <poly id="1235725878" type="building" color="255,230,230" fill="1" layer="-1.00" shape="1418.407656,3391.987037 1416.434750,3378.091072 1430.914085,3376.066644 1432.886983,3389.962610 1418.407656,3391.987037"/>
    <poly id="1235725879" type="building" color="255,230,230" fill="1" layer="-1.00" shape="1379.689285,3416.603978 1379.271504,3407.724318 1399.218875,3406.811059 1399.625773,3415.679694 1379.689285,3416.603978"/>
    <poly id="1235725880" type="building" color="255,230,230" fill="1" layer="-1.00" shape="1361.059613,3272.100026 1359.293567,3261.996906 1379.443803,3260.032339 1380.624350,3270.137270 1361.059613,3272.100026"/>