<?xml version='1.0' encoding='utf-8'?>
<additional>
  <laneAreaDetector id="det_cluster_277435571_7027588119_-25466310#0_0" lane="-25466310#0_0" pos="0" endPos="56.85" freq="60" file="det_output.xml" />
  <laneAreaDetector id="det_cluster_277435571_7027588119_101176398#6_0" lane="101176398#6_0" pos="0" endPos="80.69" freq="60" file="det_output.xml" />
  <laneAreaDetector id="det_cluster_277435571_7027588119_1270815079#1_0" lane="1270815079#1_0" pos="0" endPos="114.09" freq="60" file="det_output.xml" />
  <laneAreaDetector id="det_cluster_277435571_7027588119_26524553#1_0" lane="26524553#1_0" pos="0" endPos="108.32" freq="60" file="det_output.xml" />
  <laneAreaDetector id="det_277434352_1049522243#1_0" lane="1049522243#1_0" pos="0" endPos="39.98" freq="60" file="det_output.xml" />
  <laneAreaDetector id="det_277434352_1202063737#3_0" lane="1202063737#3_0" pos="0" endPos="101.58" freq="60" file="det_output.xml" />
  <laneAreaDetector id="det_277439414_1110246915#0_0" lane="1110246915#0_0" pos="0" endPos="5.44" freq="60" file="det_output.xml" />
  <laneAreaDetector id="det_277439414_1110246915#0_1" lane="1110246915#0_1" pos="0" endPos="5.44" freq="60" file="det_output.xml" />
  <laneAreaDetector id="det_314643681_588367501#5_0" lane="588367501#5_0" pos="0" endPos="36.10" freq="60" file="det_output.xml" />
  <laneAreaDetector id="det_314643681_588367501#5_1" lane="588367501#5_1" pos="0" endPos="36.10" freq="60" file="det_output.xml" />
  <laneAreaDetector id="det_277435460_1114825837_0" lane="1114825837_0" pos="0" endPos="57.64" freq="60" file="det_output.xml" />
  <laneAreaDetector id="det_277435460_1303180229#3_0" lane="1303180229#3_0" pos="0" endPos="35.63" freq="60" file="det_output.xml" />
  <laneAreaDetector id="det_277435460_1303180229#3_1" lane="1303180229#3_1" pos="0" endPos="35.63" freq="60" file="det_output.xml" />
  <laneAreaDetector id="det_10594234677_102547886#5_0" lane="102547886#5_0" pos="0" endPos="35.67" freq="60" file="det_output.xml" />
  <laneAreaDetector id="det_10594234677_102547886#5_1" lane="102547886#5_1" pos="0" endPos="35.67" freq="60" file="det_output.xml" />
  <laneAreaDetector id="det_10594234677_1304968129_0" lane="1304968129_0" pos="0" endPos="8.88" freq="60" file="det_output.xml" />
  <laneAreaDetector id="det_10594234677_26748566#13_0" lane="26748566#13_0" pos="0" endPos="87.54" freq="60" file="det_output.xml" />
  <laneAreaDetector id="det_277439021_-1304968129_0" lane="-1304968129_0" pos="0" endPos="8.88" freq="60" file="det_output.xml" />
  <laneAreaDetector id="det_277439021_-27461040#0_0" lane="-27461040#0_0" pos="0" endPos="95.77" freq="60" file="det_output.xml" />
  <laneAreaDetector id="det_277439021_-27461040#0_1" lane="-27461040#0_1" pos="0" endPos="95.77" freq="60" file="det_output.xml" />
  <laneAreaDetector id="det_277439021_1137982400_0" lane="1137982400_0" pos="0" endPos="39.31" freq="60" file="det_output.xml" />
  <laneAreaDetector id="det_277439021_1137982400_1" lane="1137982400_1" pos="0" endPos="39.31" freq="60" file="det_output.xml" />
  <laneAreaDetector id="det_314643627_26621177#6_0" lane="26621177#6_0" pos="0" endPos="56.79" freq="60" file="det_output.xml" />
  <laneAreaDetector id="det_314643627_274724531#3_0" lane="274724531#3_0" pos="0" endPos="21.04" freq="60" file="det_output.xml" />
  <laneAreaDetector id="det_314643627_274724531#3_1" lane="274724531#3_1" pos="0" endPos="21.04" freq="60" file="det_output.xml" />
  <laneAreaDetector id="det_247681990_215526706#9_0" lane="215526706#9_0" pos="0" endPos="51.66" freq="60" file="det_output.xml" />
  <laneAreaDetector id="det_cluster_2197415692_245579177_-26524352#0_0" lane="-26524352#0_0" pos="0" endPos="54.51" freq="60" file="det_output.xml" />
  <laneAreaDetector id="det_cluster_2197415692_245579177_1349707178#10_0" lane="1349707178#10_0" pos="0" endPos="77.24" freq="60" file="det_output.xml" />
  <laneAreaDetector id="det_cluster_2197415692_245579177_27191864#1_0" lane="27191864#1_0" pos="0" endPos="77.35" freq="60" file="det_output.xml" />
  <laneAreaDetector id="det_cluster_2197415692_245579177_72850475#1_0" lane="72850475#1_0" pos="0" endPos="24.82" freq="60" file="det_output.xml" />
  <laneAreaDetector id="det_cluster_2197415692_245579177_72850475#1_1" lane="72850475#1_1" pos="0" endPos="24.82" freq="60" file="det_output.xml" />
  <laneAreaDetector id="det_247074857_-692208071_0" lane="-692208071_0" pos="0" endPos="32.91" freq="60" file="det_output.xml" />
  <laneAreaDetector id="det_247074857_1342417607_0" lane="1342417607_0" pos="0" endPos="10.03" freq="60" file="det_output.xml" />
  <laneAreaDetector id="det_277438924_102547872#1_0" lane="102547872#1_0" pos="0" endPos="246.79" freq="60" file="det_output.xml" />
  <laneAreaDetector id="det_277438924_102547872#1_1" lane="102547872#1_1" pos="0" endPos="246.79" freq="60" file="det_output.xml" />
  <laneAreaDetector id="det_5328855183_838093322_0" lane="838093322_0" pos="0" endPos="22.66" freq="60" file="det_output.xml" />
  <laneAreaDetector id="det_5328855183_838093322_1" lane="838093322_1" pos="0" endPos="22.66" freq="60" file="det_output.xml" />
  <laneAreaDetector id="det_300216374_1040430248#1_0" lane="1040430248#1_0" pos="0" endPos="66.19" freq="60" file="det_output.xml" />
  <laneAreaDetector id="det_30038738_588357066_0" lane="588357066_0" pos="0" endPos="34.74" freq="60" file="det_output.xml" />
  <laneAreaDetector id="det_30038738_588357066_1" lane="588357066_1" pos="0" endPos="34.74" freq="60" file="det_output.xml" />
  <laneAreaDetector id="det_315262038_836742076#3_0" lane="836742076#3_0" pos="0" endPos="20.08" freq="60" file="det_output.xml" />
  <laneAreaDetector id="det_315262038_838093323_0" lane="838093323_0" pos="0" endPos="22.33" freq="60" file="det_output.xml" />
  <laneAreaDetector id="det_315262038_838093323_1" lane="838093323_1" pos="0" endPos="22.33" freq="60" file="det_output.xml" />
  <laneAreaDetector id="det_2001005468_1146682776_0" lane="1146682776_0" pos="0" endPos="110.80" freq="60" file="det_output.xml" />
  <laneAreaDetector id="det_2001005468_1341284550_0" lane="1341284550_0" pos="0" endPos="100.59" freq="60" file="det_output.xml" />
  <laneAreaDetector id="det_2001005468_1341284550_1" lane="1341284550_1" pos="0" endPos="100.59" freq="60" file="det_output.xml" />
  <laneAreaDetector id="det_cluster_256606767_315260055_7027588133_7027588134_1238038906_0" lane="1238038906_0" pos="0" endPos="62.69" freq="60" file="det_output.xml" />
  <laneAreaDetector id="det_cluster_256606767_315260055_7027588133_7027588134_28682391#1_0" lane="28682391#1_0" pos="0" endPos="48.26" freq="60" file="det_output.xml" />
  <laneAreaDetector id="det_cluster_256606767_315260055_7027588133_7027588134_28682391#1_1" lane="28682391#1_1" pos="0" endPos="48.26" freq="60" file="det_output.xml" />
  <laneAreaDetector id="det_cluster_256606767_315260055_7027588133_7027588134_58503040#8_0" lane="58503040#8_0" pos="0" endPos="158.58" freq="60" file="det_output.xml" />
  <laneAreaDetector id="det_cluster_256606767_315260055_7027588133_7027588134_58503040#8_1" lane="58503040#8_1" pos="0" endPos="158.58" freq="60" file="det_output.xml" />
  <laneAreaDetector id="det_cluster_10175118715_10175118716_10175133017_277434297_#1more_1229033619#5_0" lane="1229033619#5_0" pos="0" endPos="34.69" freq="60" file="det_output.xml" />
  <laneAreaDetector id="det_cluster_10175118715_10175118716_10175133017_277434297_#1more_1229033619#5_1" lane="1229033619#5_1" pos="0" endPos="34.69" freq="60" file="det_output.xml" />
  <laneAreaDetector id="det_cluster_10175118715_10175118716_10175133017_277434297_#1more_1421508960_0" lane="1421508960_0" pos="0" endPos="53.24" freq="60" file="det_output.xml" />
  <laneAreaDetector id="det_cluster_10175118715_10175118716_10175133017_277434297_#1more_34549705#3_0" lane="34549705#3_0" pos="0" endPos="99.73" freq="60" file="det_output.xml" />
</additional>