<?xml version='1.0' encoding='utf-8'?>
<additional>
  <laneAreaDetector id="det_1114825837_0" lane="1114825837_0" pos="0" endPos="57.64" freq="60" file="C:\Fixed_timer\traffic_simulation\detectors\det_output.xml" />
  <laneAreaDetector id="det_1303180229_3_0" lane="1303180229#3_0" pos="0" endPos="35.63" freq="60" file="C:\Fixed_timer\traffic_simulation\detectors\det_output.xml" />
  <laneAreaDetector id="det_1303180229_3_1" lane="1303180229#3_1" pos="0" endPos="35.63" freq="60" file="C:\Fixed_timer\traffic_simulation\detectors\det_output.xml" />
  <laneAreaDetector id="det__25466310_0_0" lane="-25466310#0_0" pos="0" endPos="57.08" freq="60" file="C:\Fixed_timer\traffic_simulation\detectors\det_output.xml" />
  <laneAreaDetector id="det_101176398_6_0" lane="101176398#6_0" pos="0" endPos="80.77" freq="60" file="C:\Fixed_timer\traffic_simulation\detectors\det_output.xml" />
  <laneAreaDetector id="det_1270815079_1_0" lane="1270815079#1_0" pos="0" endPos="117.39" freq="60" file="C:\Fixed_timer\traffic_simulation\detectors\det_output.xml" />
  <laneAreaDetector id="det_26524553_1_0" lane="26524553#1_0" pos="0" endPos="110.32" freq="60" file="C:\Fixed_timer\traffic_simulation\detectors\det_output.xml" />
  <laneAreaDetector id="det_1146682776_0" lane="1146682776_0" pos="0" endPos="115.33" freq="60" file="C:\Fixed_timer\traffic_simulation\detectors\det_output.xml" />
  <laneAreaDetector id="det_1341284550_0" lane="1341284550_0" pos="0" endPos="101.12" freq="60" file="C:\Fixed_timer\traffic_simulation\detectors\det_output.xml" />
  <laneAreaDetector id="det_588357066_0" lane="588357066_0" pos="0" endPos="34.74" freq="60" file="C:\Fixed_timer\traffic_simulation\detectors\det_output.xml" />
  <laneAreaDetector id="det_588357066_1" lane="588357066_1" pos="0" endPos="34.74" freq="60" file="C:\Fixed_timer\traffic_simulation\detectors\det_output.xml" />
  <laneAreaDetector id="det_215526706_9_0" lane="215526706#9_0" pos="0" endPos="51.66" freq="60" file="C:\Fixed_timer\traffic_simulation\detectors\det_output.xml" />
  <laneAreaDetector id="det_1238038906_0" lane="1238038906_0" pos="0" endPos="65.13" freq="60" file="C:\Fixed_timer\traffic_simulation\detectors\det_output.xml" />
  <laneAreaDetector id="det_28682391_1_0" lane="28682391#1_0" pos="0" endPos="50.30" freq="60" file="C:\Fixed_timer\traffic_simulation\detectors\det_output.xml" />
  <laneAreaDetector id="det_28682391_1_1" lane="28682391#1_1" pos="0" endPos="50.30" freq="60" file="C:\Fixed_timer\traffic_simulation\detectors\det_output.xml" />
  <laneAreaDetector id="det_58503040_8_0" lane="58503040#8_0" pos="0" endPos="160.58" freq="60" file="C:\Fixed_timer\traffic_simulation\detectors\det_output.xml" />
  <laneAreaDetector id="det_58503040_8_1" lane="58503040#8_1" pos="0" endPos="160.58" freq="60" file="C:\Fixed_timer\traffic_simulation\detectors\det_output.xml" />
  <laneAreaDetector id="det_1040430248_1_0" lane="1040430248#1_0" pos="0" endPos="66.19" freq="60" file="C:\Fixed_timer\traffic_simulation\detectors\det_output.xml" />
  <laneAreaDetector id="det_1049522243_1_0" lane="1049522243#1_0" pos="0" endPos="39.99" freq="60" file="C:\Fixed_timer\traffic_simulation\detectors\det_output.xml" />
  <laneAreaDetector id="det_1202063737_3_0" lane="1202063737#3_0" pos="0" endPos="103.76" freq="60" file="C:\Fixed_timer\traffic_simulation\detectors\det_output.xml" />
  <laneAreaDetector id="det__26524352_0_0" lane="-26524352#0_0" pos="0" endPos="54.51" freq="60" file="C:\Fixed_timer\traffic_simulation\detectors\det_output.xml" />
  <laneAreaDetector id="det_1349707178_10_0" lane="1349707178#10_0" pos="0" endPos="81.28" freq="60" file="C:\Fixed_timer\traffic_simulation\detectors\det_output.xml" />
  <laneAreaDetector id="det_27191864_1_0" lane="27191864#1_0" pos="0" endPos="78.11" freq="60" file="C:\Fixed_timer\traffic_simulation\detectors\det_output.xml" />
  <laneAreaDetector id="det_72850475_1_0" lane="72850475#1_0" pos="0" endPos="24.90" freq="60" file="C:\Fixed_timer\traffic_simulation\detectors\det_output.xml" />
  <laneAreaDetector id="det_1110246915_0_0" lane="1110246915#0_0" pos="0" endPos="5.44" freq="60" file="C:\Fixed_timer\traffic_simulation\detectors\det_output.xml" />
  <laneAreaDetector id="det_1110246915_0_1" lane="1110246915#0_1" pos="0" endPos="5.44" freq="60" file="C:\Fixed_timer\traffic_simulation\detectors\det_output.xml" />
  <laneAreaDetector id="det_836742076_3_0" lane="836742076#3_0" pos="0" endPos="20.08" freq="60" file="C:\Fixed_timer\traffic_simulation\detectors\det_output.xml" />
  <laneAreaDetector id="det_838093323_0" lane="838093323_0" pos="0" endPos="22.33" freq="60" file="C:\Fixed_timer\traffic_simulation\detectors\det_output.xml" />
  <laneAreaDetector id="det_838093323_1" lane="838093323_1" pos="0" endPos="22.33" freq="60" file="C:\Fixed_timer\traffic_simulation\detectors\det_output.xml" />
  <laneAreaDetector id="det_838093322_0" lane="838093322_0" pos="0" endPos="22.66" freq="60" file="C:\Fixed_timer\traffic_simulation\detectors\det_output.xml" />
  <laneAreaDetector id="det_838093322_1" lane="838093322_1" pos="0" endPos="22.66" freq="60" file="C:\Fixed_timer\traffic_simulation\detectors\det_output.xml" />
  <laneAreaDetector id="det_26621177_6_0" lane="26621177#6_0" pos="0" endPos="56.80" freq="60" file="C:\Fixed_timer\traffic_simulation\detectors\det_output.xml" />
  <laneAreaDetector id="det_274724531_3_0" lane="274724531#3_0" pos="0" endPos="21.04" freq="60" file="C:\Fixed_timer\traffic_simulation\detectors\det_output.xml" />
  <laneAreaDetector id="det_274724531_3_1" lane="274724531#3_1" pos="0" endPos="21.04" freq="60" file="C:\Fixed_timer\traffic_simulation\detectors\det_output.xml" />
  <laneAreaDetector id="det_102547886_5_0" lane="102547886#5_0" pos="0" endPos="44.25" freq="60" file="C:\Fixed_timer\traffic_simulation\detectors\det_output.xml" />
  <laneAreaDetector id="det_102547886_5_1" lane="102547886#5_1" pos="0" endPos="44.25" freq="60" file="C:\Fixed_timer\traffic_simulation\detectors\det_output.xml" />
  <laneAreaDetector id="det_26748566_13_0" lane="26748566#13_0" pos="0" endPos="90.06" freq="60" file="C:\Fixed_timer\traffic_simulation\detectors\det_output.xml" />
  <laneAreaDetector id="det_1229033619_5_0" lane="1229033619#5_0" pos="0" endPos="36.69" freq="60" file="C:\Fixed_timer\traffic_simulation\detectors\det_output.xml" />
  <laneAreaDetector id="det_1229033619_5_1" lane="1229033619#5_1" pos="0" endPos="36.69" freq="60" file="C:\Fixed_timer\traffic_simulation\detectors\det_output.xml" />
  <laneAreaDetector id="det_1421508960_0" lane="1421508960_0" pos="0" endPos="55.25" freq="60" file="C:\Fixed_timer\traffic_simulation\detectors\det_output.xml" />
  <laneAreaDetector id="det_34549705_3_0" lane="34549705#3_0" pos="0" endPos="99.73" freq="60" file="C:\Fixed_timer\traffic_simulation\detectors\det_output.xml" />
  <laneAreaDetector id="det_102547872_1_0" lane="102547872#1_0" pos="0" endPos="246.79" freq="60" file="C:\Fixed_timer\traffic_simulation\detectors\det_output.xml" />
  <laneAreaDetector id="det_102547872_1_1" lane="102547872#1_1" pos="0" endPos="246.79" freq="60" file="C:\Fixed_timer\traffic_simulation\detectors\det_output.xml" />
  <laneAreaDetector id="det__27461040_0_0" lane="-27461040#0_0" pos="0" endPos="100.45" freq="60" file="C:\Fixed_timer\traffic_simulation\detectors\det_output.xml" />
  <laneAreaDetector id="det_1137982400_0" lane="1137982400_0" pos="0" endPos="49.42" freq="60" file="C:\Fixed_timer\traffic_simulation\detectors\det_output.xml" />
  <laneAreaDetector id="det_1137982400_1" lane="1137982400_1" pos="0" endPos="49.42" freq="60" file="C:\Fixed_timer\traffic_simulation\detectors\det_output.xml" />
  <laneAreaDetector id="det__692208071_0" lane="-692208071_0" pos="0" endPos="32.91" freq="60" file="C:\Fixed_timer\traffic_simulation\detectors\det_output.xml" />
  <laneAreaDetector id="det_1342417607_0" lane="1342417607_0" pos="0" endPos="10.03" freq="60" file="C:\Fixed_timer\traffic_simulation\detectors\det_output.xml" />
  <laneAreaDetector id="det_588367501_5_0" lane="588367501#5_0" pos="0" endPos="36.10" freq="60" file="C:\Fixed_timer\traffic_simulation\detectors\det_output.xml" />
  <laneAreaDetector id="det_588367501_5_1" lane="588367501#5_1" pos="0" endPos="36.10" freq="60" file="C:\Fixed_timer\traffic_simulation\detectors\det_output.xml" />
</additional>