<?xml version='1.0' encoding='utf-8'?>
<additional>
  <tlLogic id="10175058348" type="static" programID="SA_fixed" offset="0">
    <phase duration="30" state="GGGGGGrrrrrr" />
    <phase duration="5" state="yyyyyyrrrrrr" />
    <phase duration="30" state="rrrrrrGGGGGG" />
    <phase duration="5" state="rrrrrryyyyyy" />
  </tlLogic>
  <connection from="-1131526942#9" to="-1131526942#8" fromLane="1" toLane="1" tl="10175058348" linkIndex="0" />
  <connection from="-1131526942#9" to="1333243978" fromLane="1" toLane="1" tl="10175058348" linkIndex="1" />
  <connection from="-1131526942#9" to="1131526942#9" fromLane="1" toLane="1" tl="10175058348" linkIndex="2" />
  <connection from="-1131526943" to="1131526942#9" fromLane="1" toLane="1" tl="10175058348" linkIndex="3" />
  <connection from="-1131526943" to="-1131526942#8" fromLane="1" toLane="1" tl="10175058348" linkIndex="4" />
  <connection from="-1131526943" to="1333243978" fromLane="1" toLane="1" tl="10175058348" linkIndex="5" />
  <connection from="1131526942#8" to="1333243978" fromLane="1" toLane="1" tl="10175058348" linkIndex="6" />
  <connection from="1131526942#8" to="1131526942#9" fromLane="1" toLane="1" tl="10175058348" linkIndex="7" />
  <connection from="1131526942#8" to="-1131526942#8" fromLane="1" toLane="1" tl="10175058348" linkIndex="8" />
  <connection from="1131526942#8" to=":10175058348_w0" fromLane="0" toLane="0" tl="10175058348" linkIndex="9" />
  <connection from="-1131526942#9" to=":10175058348_w1" fromLane="0" toLane="0" tl="10175058348" linkIndex="10" />
  <connection from="-1131526943" to=":10175058348_w2" fromLane="0" toLane="0" tl="10175058348" linkIndex="11" />
  <tlLogic id="10216123926" type="static" programID="SA_fixed" offset="0">
    <phase duration="30" state="GGGGGGrrrrrr" />
    <phase duration="5" state="yyyyyyrrrrrr" />
    <phase duration="30" state="rrrrrrGGGGGG" />
    <phase duration="5" state="rrrrrryyyyyy" />
  </tlLogic>
  <connection from="-1117023142" to="-1131526942#9" fromLane="1" toLane="1" tl="10216123926" linkIndex="0" />
  <connection from="-1117023142" to="1131526942#10" fromLane="1" toLane="1" tl="10216123926" linkIndex="1" />
  <connection from="-1117023142" to="1117023142" fromLane="1" toLane="1" tl="10216123926" linkIndex="2" />
  <connection from="-1131526942#10" to="1117023142" fromLane="1" toLane="1" tl="10216123926" linkIndex="3" />
  <connection from="-1131526942#10" to="-1131526942#9" fromLane="1" toLane="1" tl="10216123926" linkIndex="4" />
  <connection from="-1131526942#10" to="1131526942#10" fromLane="1" toLane="1" tl="10216123926" linkIndex="5" />
  <connection from="1131526942#9" to="1131526942#10" fromLane="1" toLane="1" tl="10216123926" linkIndex="6" />
  <connection from="1131526942#9" to="1117023142" fromLane="1" toLane="1" tl="10216123926" linkIndex="7" />
  <connection from="1131526942#9" to="-1131526942#9" fromLane="1" toLane="1" tl="10216123926" linkIndex="8" />
  <connection from="1131526942#9" to=":10216123926_w0" fromLane="0" toLane="0" tl="10216123926" linkIndex="9" />
  <connection from="-1117023142" to=":10216123926_w1" fromLane="0" toLane="0" tl="10216123926" linkIndex="10" />
  <connection from="-1131526942#10" to=":10216123926_w2" fromLane="0" toLane="0" tl="10216123926" linkIndex="11" />
  <tlLogic id="10279761026" type="static" programID="SA_fixed" offset="0">
    <phase duration="30" state="GGGGGGrrrrrr" />
    <phase duration="5" state="yyyyyyrrrrrr" />
    <phase duration="30" state="rrrrrrGGGGGG" />
    <phase duration="5" state="rrrrrryyyyyy" />
  </tlLogic>
  <connection from="-27454373#1" to="-27454373#0" fromLane="1" toLane="1" tl="10279761026" linkIndex="0" />
  <connection from="-27454373#1" to="-1144942378" fromLane="1" toLane="0" tl="10279761026" linkIndex="1" />
  <connection from="-27454373#1" to="27454373#1" fromLane="1" toLane="1" tl="10279761026" linkIndex="2" />
  <connection from="1144942378" to="27454373#1" fromLane="0" toLane="1" tl="10279761026" linkIndex="3" />
  <connection from="1144942378" to="-27454373#0" fromLane="0" toLane="1" tl="10279761026" linkIndex="4" />
  <connection from="1144942378" to="-1144942378" fromLane="0" toLane="0" tl="10279761026" linkIndex="5" />
  <connection from="27461040#2" to="-1144942378" fromLane="1" toLane="0" tl="10279761026" linkIndex="6" />
  <connection from="27461040#2" to="27454373#1" fromLane="1" toLane="1" tl="10279761026" linkIndex="7" />
  <connection from="27461040#2" to="-27454373#0" fromLane="1" toLane="1" tl="10279761026" linkIndex="8" />
  <connection from="1144942378" to=":10279761026_w0" fromLane="0" toLane="0" tl="10279761026" linkIndex="9" />
  <connection from="27461040#2" to=":10279761026_w0" fromLane="0" toLane="0" tl="10279761026" linkIndex="10" />
  <connection from="-27454373#1" to=":10279761026_w1" fromLane="0" toLane="0" tl="10279761026" linkIndex="11" />
  <tlLogic id="10296863739" type="static" programID="SA_fixed" offset="0">
    <phase duration="30" state="GGGrrrr" />
    <phase duration="5" state="yyyrrrr" />
    <phase duration="30" state="rrrGGGG" />
    <phase duration="5" state="rrryyyy" />
  </tlLogic>
  <connection from="-209513216#3" to="-209513216#2" fromLane="1" toLane="1" tl="10296863739" linkIndex="0" />
  <connection from="1126048186" to="-209513216#2" fromLane="1" toLane="1" tl="10296863739" linkIndex="1" />
  <connection from="1126048186" to="209513216#3" fromLane="1" toLane="1" tl="10296863739" linkIndex="2" />
  <connection from="209513216#2" to="209513216#3" fromLane="1" toLane="1" tl="10296863739" linkIndex="3" />
  <connection from="209513216#2" to=":10296863739_w0" fromLane="0" toLane="0" tl="10296863739" linkIndex="4" />
  <connection from="1126048186" to=":10296863739_w1" fromLane="0" toLane="0" tl="10296863739" linkIndex="5" />
  <connection from="-209513216#3" to=":10296863739_w2" fromLane="0" toLane="0" tl="10296863739" linkIndex="6" />
  <tlLogic id="10548419783" type="static" programID="SA_fixed" offset="0">
    <phase duration="30" state="GGGGGGrrrrrr" />
    <phase duration="5" state="yyyyyyrrrrrr" />
    <phase duration="30" state="rrrrrrGGGGGG" />
    <phase duration="5" state="rrrrrryyyyyy" />
  </tlLogic>
  <connection from="-25459372#0" to="-1131526943" fromLane="1" toLane="1" tl="10548419783" linkIndex="0" />
  <connection from="-25459372#0" to="1131526944" fromLane="1" toLane="1" tl="10548419783" linkIndex="1" />
  <connection from="-25459372#0" to="25459372#0" fromLane="1" toLane="1" tl="10548419783" linkIndex="2" />
  <connection from="1131526945" to="-1131526943" fromLane="1" toLane="1" tl="10548419783" linkIndex="3" />
  <connection from="1131526945" to="1131526944" fromLane="1" toLane="1" tl="10548419783" linkIndex="4" />
  <connection from="1131526945" to="25459372#0" fromLane="1" toLane="1" tl="10548419783" linkIndex="5" />
  <connection from="1333243978" to="1131526944" fromLane="1" toLane="1" tl="10548419783" linkIndex="6" />
  <connection from="1333243978" to="25459372#0" fromLane="1" toLane="1" tl="10548419783" linkIndex="7" />
  <connection from="1333243978" to="-1131526943" fromLane="1" toLane="1" tl="10548419783" linkIndex="8" />
  <connection from="1333243978" to=":10548419783_w0" fromLane="0" toLane="0" tl="10548419783" linkIndex="9" />
  <connection from="1131526945" to=":10548419783_w1" fromLane="0" toLane="0" tl="10548419783" linkIndex="10" />
  <connection from="-25459372#0" to=":10548419783_w2" fromLane="0" toLane="0" tl="10548419783" linkIndex="11" />
  <tlLogic id="10548419789" type="static" programID="SA_fixed" offset="0">
    <phase duration="30" state="GGGGGGrrrrrr" />
    <phase duration="5" state="yyyyyyrrrrrr" />
    <phase duration="30" state="rrrrrrGGGGGG" />
    <phase duration="5" state="rrrrrryyyyyy" />
  </tlLogic>
  <connection from="-1131526947" to="27189858#3" fromLane="1" toLane="1" tl="10548419789" linkIndex="0" />
  <connection from="-1131526947" to="-27189858#2" fromLane="1" toLane="1" tl="10548419789" linkIndex="1" />
  <connection from="-1131526947" to="1131526947" fromLane="1" toLane="1" tl="10548419789" linkIndex="2" />
  <connection from="-27189858#3" to="-27189858#2" fromLane="1" toLane="1" tl="10548419789" linkIndex="3" />
  <connection from="-27189858#3" to="1131526947" fromLane="1" toLane="1" tl="10548419789" linkIndex="4" />
  <connection from="-27189858#3" to="27189858#3" fromLane="1" toLane="1" tl="10548419789" linkIndex="5" />
  <connection from="27189858#2" to="1131526947" fromLane="1" toLane="1" tl="10548419789" linkIndex="6" />
  <connection from="27189858#2" to="27189858#3" fromLane="1" toLane="1" tl="10548419789" linkIndex="7" />
  <connection from="27189858#2" to="-27189858#2" fromLane="1" toLane="1" tl="10548419789" linkIndex="8" />
  <connection from="27189858#2" to=":10548419789_w0" fromLane="0" toLane="0" tl="10548419789" linkIndex="9" />
  <connection from="-27189858#3" to=":10548419789_w1" fromLane="0" toLane="0" tl="10548419789" linkIndex="10" />
  <connection from="-1131526947" to=":10548419789_w2" fromLane="0" toLane="0" tl="10548419789" linkIndex="11" />
  <tlLogic id="10548917360" type="static" programID="SA_fixed" offset="0">
    <phase duration="30" state="GGGGGGrrrrrr" />
    <phase duration="5" state="yyyyyyrrrrrr" />
    <phase duration="30" state="rrrrrrGGGGGG" />
    <phase duration="5" state="rrrrrryyyyyy" />
  </tlLogic>
  <connection from="-1276634448" to="27189815#2" fromLane="1" toLane="1" tl="10548917360" linkIndex="0" />
  <connection from="-1276634448" to="-27189815#1" fromLane="1" toLane="1" tl="10548917360" linkIndex="1" />
  <connection from="-1276634448" to="1276634448" fromLane="1" toLane="1" tl="10548917360" linkIndex="2" />
  <connection from="-27189815#2" to="-27189815#1" fromLane="1" toLane="1" tl="10548917360" linkIndex="3" />
  <connection from="-27189815#2" to="1276634448" fromLane="1" toLane="1" tl="10548917360" linkIndex="4" />
  <connection from="-27189815#2" to="27189815#2" fromLane="1" toLane="1" tl="10548917360" linkIndex="5" />
  <connection from="27189815#1" to="1276634448" fromLane="1" toLane="1" tl="10548917360" linkIndex="6" />
  <connection from="27189815#1" to="27189815#2" fromLane="1" toLane="1" tl="10548917360" linkIndex="7" />
  <connection from="27189815#1" to="-27189815#1" fromLane="1" toLane="1" tl="10548917360" linkIndex="8" />
  <connection from="-27189815#2" to=":10548917360_w0" fromLane="0" toLane="0" tl="10548917360" linkIndex="9" />
  <connection from="-1276634448" to=":10548917360_w1" fromLane="0" toLane="0" tl="10548917360" linkIndex="10" />
  <connection from="27189815#1" to=":10548917360_w2" fromLane="0" toLane="0" tl="10548917360" linkIndex="11" />
  <tlLogic id="10548917364" type="static" programID="SA_fixed" offset="0">
    <phase duration="30" state="GGGGGGGGGGrrrrrrrrrr" />
    <phase duration="5" state="yyyyyyyyyyrrrrrrrrrr" />
    <phase duration="30" state="rrrrrrrrrrGGGGGGGGGG" />
    <phase duration="5" state="rrrrrrrrrryyyyyyyyyy" />
  </tlLogic>
  <connection from="-1276634446" to="-995147918#1" fromLane="1" toLane="1" tl="10548917364" linkIndex="0" />
  <connection from="-1276634446" to="-1276634447" fromLane="1" toLane="1" tl="10548917364" linkIndex="1" />
  <connection from="-1276634446" to="995147918#2" fromLane="1" toLane="1" tl="10548917364" linkIndex="2" />
  <connection from="-1276634446" to="1276634446" fromLane="1" toLane="1" tl="10548917364" linkIndex="3" />
  <connection from="-995147918#2" to="1276634446" fromLane="1" toLane="1" tl="10548917364" linkIndex="4" />
  <connection from="-995147918#2" to="-995147918#1" fromLane="1" toLane="1" tl="10548917364" linkIndex="5" />
  <connection from="-995147918#2" to="-1276634447" fromLane="1" toLane="1" tl="10548917364" linkIndex="6" />
  <connection from="-995147918#2" to="995147918#2" fromLane="1" toLane="1" tl="10548917364" linkIndex="7" />
  <connection from="1276634447" to="995147918#2" fromLane="1" toLane="1" tl="10548917364" linkIndex="8" />
  <connection from="1276634447" to="1276634446" fromLane="1" toLane="1" tl="10548917364" linkIndex="9" />
  <connection from="1276634447" to="-995147918#1" fromLane="1" toLane="1" tl="10548917364" linkIndex="10" />
  <connection from="1276634447" to="-1276634447" fromLane="1" toLane="1" tl="10548917364" linkIndex="11" />
  <connection from="995147918#1" to="-1276634447" fromLane="1" toLane="1" tl="10548917364" linkIndex="12" />
  <connection from="995147918#1" to="995147918#2" fromLane="1" toLane="1" tl="10548917364" linkIndex="13" />
  <connection from="995147918#1" to="1276634446" fromLane="1" toLane="1" tl="10548917364" linkIndex="14" />
  <connection from="995147918#1" to="-995147918#1" fromLane="1" toLane="1" tl="10548917364" linkIndex="15" />
  <connection from="995147918#1" to=":10548917364_w0" fromLane="0" toLane="0" tl="10548917364" linkIndex="16" />
  <connection from="-1276634446" to=":10548917364_w1" fromLane="0" toLane="0" tl="10548917364" linkIndex="17" />
  <connection from="-995147918#2" to=":10548917364_w2" fromLane="0" toLane="0" tl="10548917364" linkIndex="18" />
  <connection from="1276634447" to=":10548917364_w3" fromLane="0" toLane="0" tl="10548917364" linkIndex="19" />
  <tlLogic id="10548917369" type="static" programID="SA_fixed" offset="0">
    <phase duration="30" state="GGGGGGrrrrrr" />
    <phase duration="5" state="yyyyyyrrrrrr" />
    <phase duration="30" state="rrrrrrGGGGGG" />
    <phase duration="5" state="rrrrrryyyyyy" />
  </tlLogic>
  <connection from="-995147918#3" to="-995147918#2" fromLane="1" toLane="1" tl="10548917369" linkIndex="0" />
  <connection from="-995147918#3" to="-1131602413#1" fromLane="1" toLane="1" tl="10548917369" linkIndex="1" />
  <connection from="-995147918#3" to="995147918#3" fromLane="1" toLane="1" tl="10548917369" linkIndex="2" />
  <connection from="1131602413#1" to="995147918#3" fromLane="1" toLane="1" tl="10548917369" linkIndex="3" />
  <connection from="1131602413#1" to="-995147918#2" fromLane="1" toLane="1" tl="10548917369" linkIndex="4" />
  <connection from="1131602413#1" to="-1131602413#1" fromLane="1" toLane="1" tl="10548917369" linkIndex="5" />
  <connection from="995147918#2" to="-1131602413#1" fromLane="1" toLane="1" tl="10548917369" linkIndex="6" />
  <connection from="995147918#2" to="995147918#3" fromLane="1" toLane="1" tl="10548917369" linkIndex="7" />
  <connection from="995147918#2" to="-995147918#2" fromLane="1" toLane="1" tl="10548917369" linkIndex="8" />
  <connection from="1131602413#1" to=":10548917369_w0" fromLane="0" toLane="0" tl="10548917369" linkIndex="9" />
  <connection from="995147918#2" to=":10548917369_w1" fromLane="0" toLane="0" tl="10548917369" linkIndex="10" />
  <connection from="-995147918#3" to=":10548917369_w2" fromLane="0" toLane="0" tl="10548917369" linkIndex="11" />
  <tlLogic id="10657429431" type="static" programID="SA_fixed" offset="0">
    <phase duration="30" state="GGGGGrrrrr" />
    <phase duration="5" state="yyyyyrrrrr" />
    <phase duration="30" state="rrrrrGGGGG" />
    <phase duration="5" state="rrrrryyyyy" />
  </tlLogic>
  <connection from="-1145090891" to="-218229786#0" fromLane="1" toLane="1" tl="10657429431" linkIndex="0" />
  <connection from="-1145090891" to="218229786#1" fromLane="1" toLane="1" tl="10657429431" linkIndex="1" />
  <connection from="-1145090891" to="1145090891" fromLane="1" toLane="1" tl="10657429431" linkIndex="2" />
  <connection from="-218229786#1" to="1145090891" fromLane="1" toLane="1" tl="10657429431" linkIndex="3" />
  <connection from="-218229786#1" to="-218229786#0" fromLane="1" toLane="1" tl="10657429431" linkIndex="4" />
  <connection from="218229786#0" to="218229786#1" fromLane="1" toLane="1" tl="10657429431" linkIndex="5" />
  <connection from="218229786#0" to="1145090891" fromLane="1" toLane="1" tl="10657429431" linkIndex="6" />
  <connection from="218229786#0" to=":10657429431_w0" fromLane="0" toLane="0" tl="10657429431" linkIndex="7" />
  <connection from="-1145090891" to=":10657429431_w1" fromLane="0" toLane="0" tl="10657429431" linkIndex="8" />
  <connection from="-218229786#1" to=":10657429431_w2" fromLane="0" toLane="0" tl="10657429431" linkIndex="9" />
  <tlLogic id="10657429432" type="static" programID="SA_fixed" offset="0">
    <phase duration="30" state="GGGGGGrrrrrr" />
    <phase duration="5" state="yyyyyyrrrrrr" />
    <phase duration="30" state="rrrrrrGGGGGG" />
    <phase duration="5" state="rrrrrryyyyyy" />
  </tlLogic>
  <connection from="-1145090892" to="1188604083" fromLane="1" toLane="1" tl="10657429432" linkIndex="0" />
  <connection from="-1145090892" to="-1145090891" fromLane="1" toLane="1" tl="10657429432" linkIndex="1" />
  <connection from="-1145090892" to="1145090892" fromLane="1" toLane="1" tl="10657429432" linkIndex="2" />
  <connection from="-1188604083" to="-1145090891" fromLane="1" toLane="1" tl="10657429432" linkIndex="3" />
  <connection from="-1188604083" to="1145090892" fromLane="1" toLane="1" tl="10657429432" linkIndex="4" />
  <connection from="-1188604083" to="1188604083" fromLane="1" toLane="1" tl="10657429432" linkIndex="5" />
  <connection from="1145090891" to="1145090892" fromLane="1" toLane="1" tl="10657429432" linkIndex="6" />
  <connection from="1145090891" to="1188604083" fromLane="1" toLane="1" tl="10657429432" linkIndex="7" />
  <connection from="1145090891" to="-1145090891" fromLane="1" toLane="1" tl="10657429432" linkIndex="8" />
  <connection from="-1188604083" to=":10657429432_w0" fromLane="0" toLane="0" tl="10657429432" linkIndex="9" />
  <connection from="-1145090892" to=":10657429432_w1" fromLane="0" toLane="0" tl="10657429432" linkIndex="10" />
  <connection from="1145090891" to=":10657429432_w2" fromLane="0" toLane="0" tl="10657429432" linkIndex="11" />
  <tlLogic id="10758277408" type="static" programID="SA_fixed" offset="0">
    <phase duration="30" state="GGGrrr" />
    <phase duration="5" state="yyyrrr" />
    <phase duration="30" state="rrrGGG" />
    <phase duration="5" state="rrryyy" />
  </tlLogic>
  <connection from="-1156877273" to="566526031#1" fromLane="1" toLane="1" tl="10758277408" linkIndex="0" />
  <connection from="-1156877273" to="1156877273" fromLane="1" toLane="1" tl="10758277408" linkIndex="1" />
  <connection from="566526031#0" to="566526031#1" fromLane="1" toLane="1" tl="10758277408" linkIndex="2" />
  <connection from="566526031#0" to="1156877273" fromLane="1" toLane="1" tl="10758277408" linkIndex="3" />
  <connection from="566526031#0" to=":10758277408_w0" fromLane="0" toLane="0" tl="10758277408" linkIndex="4" />
  <connection from="-1156877273" to=":10758277408_w1" fromLane="0" toLane="0" tl="10758277408" linkIndex="5" />
  <tlLogic id="11032100774" type="static" programID="SA_fixed" offset="0">
    <phase duration="30" state="GGGGGGrrrrrr" />
    <phase duration="5" state="yyyyyyrrrrrr" />
    <phase duration="30" state="rrrrrrGGGGGG" />
    <phase duration="5" state="rrrrrryyyyyy" />
  </tlLogic>
  <connection from="-217753816#1" to="-995150156" fromLane="1" toLane="1" tl="11032100774" linkIndex="0" />
  <connection from="-217753816#1" to="-217753816#0" fromLane="1" toLane="1" tl="11032100774" linkIndex="1" />
  <connection from="-217753816#1" to="217753816#1" fromLane="1" toLane="1" tl="11032100774" linkIndex="2" />
  <connection from="217753816#0" to="217753816#1" fromLane="1" toLane="1" tl="11032100774" linkIndex="3" />
  <connection from="217753816#0" to="-995150156" fromLane="1" toLane="1" tl="11032100774" linkIndex="4" />
  <connection from="217753816#0" to="-217753816#0" fromLane="1" toLane="1" tl="11032100774" linkIndex="5" />
  <connection from="995150156" to="-217753816#0" fromLane="1" toLane="1" tl="11032100774" linkIndex="6" />
  <connection from="995150156" to="217753816#1" fromLane="1" toLane="1" tl="11032100774" linkIndex="7" />
  <connection from="995150156" to="-995150156" fromLane="1" toLane="1" tl="11032100774" linkIndex="8" />
  <connection from="995150156" to=":11032100774_w0" fromLane="0" toLane="0" tl="11032100774" linkIndex="9" />
  <connection from="-217753816#1" to=":11032100774_w1" fromLane="0" toLane="0" tl="11032100774" linkIndex="10" />
  <connection from="217753816#0" to=":11032100774_w2" fromLane="0" toLane="0" tl="11032100774" linkIndex="11" />
  <tlLogic id="11033460579" type="static" programID="SA_fixed" offset="0">
    <phase duration="30" state="GGGGGGrrrrrr" />
    <phase duration="5" state="yyyyyyrrrrrr" />
    <phase duration="30" state="rrrrrrGGGGGG" />
    <phase duration="5" state="rrrrrryyyyyy" />
  </tlLogic>
  <connection from="-1188200482" to="-995110733#0" fromLane="1" toLane="1" tl="11033460579" linkIndex="0" />
  <connection from="-1188200482" to="995110733#1" fromLane="1" toLane="1" tl="11033460579" linkIndex="1" />
  <connection from="-1188200482" to="1188200482" fromLane="1" toLane="1" tl="11033460579" linkIndex="2" />
  <connection from="-995110733#1" to="1188200482" fromLane="1" toLane="1" tl="11033460579" linkIndex="3" />
  <connection from="-995110733#1" to="-995110733#0" fromLane="1" toLane="1" tl="11033460579" linkIndex="4" />
  <connection from="-995110733#1" to="995110733#1" fromLane="1" toLane="1" tl="11033460579" linkIndex="5" />
  <connection from="995110733#0" to="995110733#1" fromLane="1" toLane="1" tl="11033460579" linkIndex="6" />
  <connection from="995110733#0" to="1188200482" fromLane="1" toLane="1" tl="11033460579" linkIndex="7" />
  <connection from="995110733#0" to="-995110733#0" fromLane="1" toLane="1" tl="11033460579" linkIndex="8" />
  <connection from="-1188200482" to=":11033460579_w0" fromLane="0" toLane="0" tl="11033460579" linkIndex="9" />
  <connection from="-995110733#1" to=":11033460579_w1" fromLane="0" toLane="0" tl="11033460579" linkIndex="10" />
  <connection from="995110733#0" to=":11033460579_w2" fromLane="0" toLane="0" tl="11033460579" linkIndex="11" />
  <tlLogic id="11033460587" type="static" programID="SA_fixed" offset="0">
    <phase duration="30" state="GGGGGGrrrrrr" />
    <phase duration="5" state="yyyyyyrrrrrr" />
    <phase duration="30" state="rrrrrrGGGGGG" />
    <phase duration="5" state="rrrrrryyyyyy" />
  </tlLogic>
  <connection from="-1188200483" to="-1188200482" fromLane="1" toLane="1" tl="11033460587" linkIndex="0" />
  <connection from="-1188200483" to="-995110733#1" fromLane="1" toLane="1" tl="11033460587" linkIndex="1" />
  <connection from="-1188200483" to="1188200483" fromLane="1" toLane="1" tl="11033460587" linkIndex="2" />
  <connection from="1188200482" to="-995110733#1" fromLane="1" toLane="1" tl="11033460587" linkIndex="3" />
  <connection from="1188200482" to="1188200483" fromLane="1" toLane="1" tl="11033460587" linkIndex="4" />
  <connection from="1188200482" to="-1188200482" fromLane="1" toLane="1" tl="11033460587" linkIndex="5" />
  <connection from="995110733#1" to="1188200483" fromLane="1" toLane="1" tl="11033460587" linkIndex="6" />
  <connection from="995110733#1" to="-1188200482" fromLane="1" toLane="1" tl="11033460587" linkIndex="7" />
  <connection from="995110733#1" to="-995110733#1" fromLane="1" toLane="1" tl="11033460587" linkIndex="8" />
  <connection from="1188200482" to=":11033460587_w0" fromLane="0" toLane="0" tl="11033460587" linkIndex="9" />
  <connection from="-1188200483" to=":11033460587_w1" fromLane="0" toLane="0" tl="11033460587" linkIndex="10" />
  <connection from="995110733#1" to=":11033460587_w2" fromLane="0" toLane="0" tl="11033460587" linkIndex="11" />
  <tlLogic id="11033567323" type="static" programID="SA_fixed" offset="0">
    <phase duration="30" state="GGGGGGrrrrrr" />
    <phase duration="5" state="yyyyyyrrrrrr" />
    <phase duration="30" state="rrrrrrGGGGGG" />
    <phase duration="5" state="rrrrrryyyyyy" />
  </tlLogic>
  <connection from="-1188200722" to="27189970#1" fromLane="1" toLane="1" tl="11033567323" linkIndex="0" />
  <connection from="-1188200722" to="-27189970#0" fromLane="1" toLane="1" tl="11033567323" linkIndex="1" />
  <connection from="-1188200722" to="1188200722" fromLane="1" toLane="1" tl="11033567323" linkIndex="2" />
  <connection from="-27189970#1" to="-27189970#0" fromLane="1" toLane="1" tl="11033567323" linkIndex="3" />
  <connection from="-27189970#1" to="1188200722" fromLane="1" toLane="1" tl="11033567323" linkIndex="4" />
  <connection from="-27189970#1" to="27189970#1" fromLane="1" toLane="1" tl="11033567323" linkIndex="5" />
  <connection from="27189970#0" to="1188200722" fromLane="1" toLane="1" tl="11033567323" linkIndex="6" />
  <connection from="27189970#0" to="27189970#1" fromLane="1" toLane="1" tl="11033567323" linkIndex="7" />
  <connection from="27189970#0" to="-27189970#0" fromLane="1" toLane="1" tl="11033567323" linkIndex="8" />
  <connection from="-27189970#1" to=":11033567323_w0" fromLane="0" toLane="0" tl="11033567323" linkIndex="9" />
  <connection from="-1188200722" to=":11033567323_w1" fromLane="0" toLane="0" tl="11033567323" linkIndex="10" />
  <connection from="27189970#0" to=":11033567323_w2" fromLane="0" toLane="0" tl="11033567323" linkIndex="11" />
  <tlLogic id="11033908648" type="static" programID="SA_fixed" offset="0">
    <phase duration="30" state="GGGGGrrrrr" />
    <phase duration="5" state="yyyyyrrrrr" />
    <phase duration="30" state="rrrrrGGGGG" />
    <phase duration="5" state="rrrrryyyyy" />
  </tlLogic>
  <connection from="-1188245129" to="-217750113#0" fromLane="1" toLane="1" tl="11033908648" linkIndex="0" />
  <connection from="-1188245129" to="217750113#1" fromLane="1" toLane="1" tl="11033908648" linkIndex="1" />
  <connection from="-1188245129" to="1188245129" fromLane="1" toLane="1" tl="11033908648" linkIndex="2" />
  <connection from="-217750113#1" to="1188245129" fromLane="1" toLane="1" tl="11033908648" linkIndex="3" />
  <connection from="-217750113#1" to="-217750113#0" fromLane="1" toLane="1" tl="11033908648" linkIndex="4" />
  <connection from="217750113#0" to="217750113#1" fromLane="1" toLane="1" tl="11033908648" linkIndex="5" />
  <connection from="217750113#0" to="1188245129" fromLane="1" toLane="1" tl="11033908648" linkIndex="6" />
  <connection from="-217750113#1" to=":11033908648_w0" fromLane="0" toLane="0" tl="11033908648" linkIndex="7" />
  <connection from="217750113#0" to=":11033908648_w1" fromLane="0" toLane="0" tl="11033908648" linkIndex="8" />
  <connection from="-1188245129" to=":11033908648_w2" fromLane="0" toLane="0" tl="11033908648" linkIndex="9" />
  <tlLogic id="11033956320" type="static" programID="SA_fixed" offset="0">
    <phase duration="30" state="GGGGGrrrrr" />
    <phase duration="5" state="yyyyyrrrrr" />
    <phase duration="30" state="rrrrrGGGGG" />
    <phase duration="5" state="rrrrryyyyy" />
  </tlLogic>
  <connection from="-1188246145" to="-27346911#2" fromLane="1" toLane="1" tl="11033956320" linkIndex="0" />
  <connection from="-1188246145" to="27346911#3" fromLane="1" toLane="1" tl="11033956320" linkIndex="1" />
  <connection from="-1188246145" to="1188246145" fromLane="1" toLane="1" tl="11033956320" linkIndex="2" />
  <connection from="-27346911#3" to="1188246145" fromLane="1" toLane="1" tl="11033956320" linkIndex="3" />
  <connection from="-27346911#3" to="-27346911#2" fromLane="1" toLane="1" tl="11033956320" linkIndex="4" />
  <connection from="27346911#2" to="27346911#3" fromLane="1" toLane="1" tl="11033956320" linkIndex="5" />
  <connection from="27346911#2" to="1188246145" fromLane="1" toLane="1" tl="11033956320" linkIndex="6" />
  <connection from="-1188246145" to=":11033956320_w0" fromLane="0" toLane="0" tl="11033956320" linkIndex="7" />
  <connection from="-27346911#3" to=":11033956320_w1" fromLane="0" toLane="0" tl="11033956320" linkIndex="8" />
  <connection from="27346911#2" to=":11033956320_w2" fromLane="0" toLane="0" tl="11033956320" linkIndex="9" />
  <tlLogic id="11033958867" type="static" programID="SA_fixed" offset="0">
    <phase duration="30" state="GGGGGrrrrr" />
    <phase duration="5" state="yyyyyrrrrr" />
    <phase duration="30" state="rrrrrGGGGG" />
    <phase duration="5" state="rrrrryyyyy" />
  </tlLogic>
  <connection from="-1188246512" to="-27346911#0" fromLane="1" toLane="1" tl="11033958867" linkIndex="0" />
  <connection from="-1188246512" to="27346911#1" fromLane="1" toLane="1" tl="11033958867" linkIndex="1" />
  <connection from="-1188246512" to="1188246512" fromLane="1" toLane="1" tl="11033958867" linkIndex="2" />
  <connection from="-27346911#1" to="1188246512" fromLane="1" toLane="1" tl="11033958867" linkIndex="3" />
  <connection from="-27346911#1" to="-27346911#0" fromLane="1" toLane="1" tl="11033958867" linkIndex="4" />
  <connection from="27346911#0" to="27346911#1" fromLane="1" toLane="1" tl="11033958867" linkIndex="5" />
  <connection from="27346911#0" to="1188246512" fromLane="1" toLane="1" tl="11033958867" linkIndex="6" />
  <connection from="-1188246512" to=":11033958867_w0" fromLane="0" toLane="0" tl="11033958867" linkIndex="7" />
  <connection from="-27346911#1" to=":11033958867_w1" fromLane="0" toLane="0" tl="11033958867" linkIndex="8" />
  <connection from="27346911#0" to=":11033958867_w2" fromLane="0" toLane="0" tl="11033958867" linkIndex="9" />
  <tlLogic id="11033975130" type="static" programID="SA_fixed" offset="0">
    <phase duration="30" state="GGGrrr" />
    <phase duration="5" state="yyyrrr" />
    <phase duration="30" state="rrrGGG" />
    <phase duration="5" state="rrryyy" />
  </tlLogic>
  <connection from="-1188248135" to="1393744734" fromLane="1" toLane="1" tl="11033975130" linkIndex="0" />
  <connection from="-1188248135" to="1188248135" fromLane="1" toLane="1" tl="11033975130" linkIndex="1" />
  <connection from="1393744732" to="1393744734" fromLane="1" toLane="1" tl="11033975130" linkIndex="2" />
  <connection from="1393744732" to="1188248135" fromLane="1" toLane="1" tl="11033975130" linkIndex="3" />
  <connection from="-1188248135" to=":11033975130_w0" fromLane="0" toLane="0" tl="11033975130" linkIndex="4" />
  <connection from="1393744732" to=":11033975130_w2" fromLane="0" toLane="0" tl="11033975130" linkIndex="5" />