<?xml version="1.0" encoding="UTF-8"?>

<!-- generated on 2026-03-15T22:40:52.297310+05:30 by Eclipse SUMO duarouter 1.26.0
<duarouterConfiguration xmlns:xsi="http://www.w3.org/2001/XMLSchema-instance" xsi:noNamespaceSchemaLocation="http://sumo.dlr.de/xsd/duarouterConfiguration.xsd">

    <input>
        <net-file value="C:\Fixed_timer\traffic_simulation\data\network\chennai.net.xml"/>
        <route-files value="C:\Fixed_timer\traffic_simulation\routes\trips_merged.xml"/>
    </input>

    <output>
        <output-file value="C:\Fixed_timer\traffic_simulation\routes\dynamic_routes.rou.xml"/>
    </output>

    <report>
        <no-warnings value="true"/>
        <ignore-errors value="true"/>
        <no-step-log value="true"/>
    </report>

</duarouterConfiguration>
-->

<routes xmlns:xsi="http://www.w3.org/2001/XMLSchema-instance" xsi:noNamespaceSchemaLocation="http://sumo.dlr.de/xsd/routes_file.xsd">
    <vehicle id="low_0" type="bike" depart="0.00">
        <route edges="206665267#0 206665267#1 27108578#5 1288011201#0 1288011201#1 760471616#0 760471616#1 760471616#2 760471616#3 760471616#4 760471616#5 1267322167 1323786815 25459293#1 25459293#2 25459293#3 25459293#4 -28087774#3 -28087774#2 -28087774#1 -28087774#0 -26525766#3 -26525766#2 -26525766#1 -26525766#0 -25459372#3 26763953#0 26763953#1 26763953#2 26763953#3 1314888279 -1249828807"/>
    </vehicle>
    <vehicle id="low_1" type="car" depart="2.00">
        <route edges="-25466266#2 25466266#2 25466266#3 25466266#4 25466266#5 25466266#6 25466266#7 -26524735#4 -26524735#3 -26524735#2 -26524735#1 -28632290#12 -28632290#10 -28632290#9 -28632290#8 -28632290#7 -28632290#6 -28632290#5 -28632290#3 -28632290#2 -28632290#1 -28632290#0 -588374658 1210961436#0 1210961436#1 1210961436#2 1188072962#0 1188072962#1 1188072962#2 1188072962#5 1188072962#7 1188072962#8 1229257704#0 1229257704#1 1229257704#2 1229257704#4 1229257704#5 1229257704#7 1229257704#8 26748566#9 -26748566#9"/>
    </vehicle>
    <vehicle id="low_2" type="car" depart="4.00">
        <route edges="23186335#4 -1313203554 -23186335#2 -23186335#0 1189076306 1373625405 27189809#0 27189809#2 27189809#3 27189809#4 27189809#5 27189809#6 27189809#7 32875901#0 32875901#2 32875901#3 32875901#4 1202063738#0 1202063738#1 1202063738#2 1202063738#3 1202063738#4 1202063738#5 27199953#0 27199953#1 27199953#2 27199953#3 1055338019#0 1055338019#1 1055338019#2 1055338019#4 1202063737#0 1202063737#1 1202063737#2 1202063737#3 1035888752 25466402#0 25466402#1 25466402#2 25466402#3 34549705#0 34549705#1 34549705#2 34549705#3 1268115264#0 27434060#0 -27347309#11 -27347309#10 -27347309#9 -27347309#8 218221691"/>
    </vehicle>
    <vehicle id="low_3" type="car" depart="6.00">
        <route edges="27432453#2 -23698648#2 -23698648#0 -23698632#1 -23698632#0 28682391#1 1229033621#0 1229033621#1 1229033621#2 1270815079#0 1270815079#1 1270815079#2 1270815079#3 -1035888752 -1049522243#1 -1049522243#0 25466413#0 25466413#1 25466413#2 25466413#3 25466413#4 25466477 -25459293#4 -25459293#3 -25459293#2 -25459293#1 -1323786814 -1267322167 209514726#0 209514726#1 209514726#2 760471615#1 209535251#0 209535247#0 209535247#1 209535247#2 209535247#3 1189127458#0 1189127458#1 843860857#2 843860857#3 209514722 1464522331#0 -189500792"/>
    </vehicle>
    <vehicle id="low_4" type="bike" depart="8.00">
        <route edges="-27434055#0 27189892#5 27189857#5 1230508744 -27198626#2 -27198626#0 -1296568961 1202063737#0 1202063737#1 1202063737#2 1202063737#3 -1049522243#1 -1049522243#0 25466413#0 25466413#1 25466413#2 25466413#3 25466413#4 25466477 -25459293#4 -25459293#3 -25459293#2 -25459293#1 -1323786814 -1267322167"/>
    </vehicle>
    <vehicle id="low_5" type="bike" depart="10.00">
        <route edges="-217754784#3 -217754784#1 -217754784#0 -68525928 1210961436#1 1210961436#2 588367501#0 588367501#1 588367501#2 588367501#3 588367501#4 588367501#5 588367501#6 274724531#0 274724531#1 274724531#2 274724531#2-AddedOffRampEdge 274724531#3 -26621177#6 -26621177#5 -26621177#4 -26621177#3 -26621177#2 -26621177#1 -26621177#0 -1269297807#5 -1269297807#4 1269290407"/>
    </vehicle>
    <vehicle id="low_6" type="bus" depart="12.00">
        <route edges="-1189608743 25459293#2 25459293#3 25459293#4 25466417 27201301 25466496#0 25466496#1 25466496#2 25466496#4 1296566889#0 1296566889#1 1049522243#0 1049522243#1 1035888752 25466402#0 25466402#1 25466402#2 25466402#3 -25466266#7 -25466266#6 -25466266#5 -25466266#4 -25466266#3 -25466266#2 -25466266#1"/>
    </vehicle>
    <vehicle id="low_7" type="car" depart="14.00">
        <route edges="-217798333 -217798334#0 -27189913 -27189888#1 -27189888#0 -25466396#6 -25466396#5 -25466396#4 -25466396#2 -25466396#1 -25466396#0 25466477 -25459293#4 -25459293#3 -25459293#2 -25459293#1 -1323786814 -1267322167 209514726#0 209514726#1 209514726#2 760471615#1 209535251#0 209535247#0 209535247#1 209535247#2 209535247#3 1189127458#0 1189127458#1 1189127458#2 27191864#0 27191864#1 27191864#2 27191864#3 27191864#4 27191864#5 27191864#6 27191864#7 27191864#8 214356679 1313205070 23610928#0 186797302#0 186797302#1 186797302#2 186797302#3"/>
    </vehicle>
    <vehicle id="low_8" type="car" depart="16.00">
        <route edges="27189869#4 426378532#0 426378532#1 426378532#2 426378532#3 426378532#4 1055338019#0 1055338019#1 1055338019#2 1055338019#4 1202063737#0 1202063737#1 1202063737#2 1202063737#3 -1049522243#1 -1049522243#0 25466413#0 25466413#1 25466413#2 25466413#3 25466413#4 25466477 -25459293#4 -25459293#3 -25459293#2 -25459293#1 -1323786814 1388442483 209535276#1 -1131526942#16"/>
    </vehicle>
    <vehicle id="low_9" type="car" depart="18.00">
        <route edges="27189858#0 -27189859#4 -27189861 -1229256130#5 -1229256130#4 -1229256130#3 -1229256130#2 -1229256130#1 -1229256130#0 1144623265#0 1144623265#1 1303180229#0 1303180229#1 1303180229#2 1303180229#3 1110246915#0 1040454951 274724531#0 274724531#1 274724531#2 274724531#2-AddedOffRampEdge 274724531#3 1384508872 1315064086#0 1315064086#1 1315064085#0 1315064085#1 1373625404 1313203553 23186335#2 23186335#4 209535238 1359489696 1359489694 1359489693#0 28621092#0 28621092#1 28621092#2 28621092#3 186797302#1 186797302#2 186797302#3 31893925#3 31893925#4 -23610928#0 -1313205071 449234343 23163965#0 23163965#1 23163965#2 23163965#3"/>
    </vehicle>
    <vehicle id="low_10" type="car" depart="20.00">
        <route edges="-27189919#2 27200528#0 26886244#0 28087774#3 25466417 27201301 25466496#0 25466496#1 25466496#2 25466496#4 1296566889#0 1296566889#1 1049522243#0 1049522243#1 1035888752 25466402#0 25466402#1 25466402#2 25466402#3 -26524735#4 -26524735#3 -27347315#4 -27347315#3 -27347315#1 -27347315#0 27346895#1 -218226967"/>
    </vehicle>
    <vehicle id="low_11" type="car" depart="22.00">
        <route edges="418882859#0 -418882859#0 1281942588 418882860#1 418882860#2 836742076#0 836742076#1 836742076#2 1310172814 69610262#1 69610262#2 69610262#3 69610262#4 69610262#5 69610262#6 663777602#0-AddedOnRampEdge 663777602#0 663777602#1 418880841#0 418880841#1 418880841#3 418880841#4 418880841#5 -27461039#1"/>
    </vehicle>
    <vehicle id="low_12" type="car" depart="24.00">
        <route edges="-1296567702#1 -214356716 1049522243#1 1035888752 25466402#0 25466402#1 25466402#2 25466402#3 -26524735#4 -26524735#3 -26524735#2 -26524735#1 -28632290#12 -28632290#10 -28632290#9 -28632290#8 -28632290#7 -28632290#6 -28632290#5 -28632290#3 -28632290#2 -28632290#1 -28632290#0 -588374658 1210961436#0 1210961436#1 1210961436#2 1188072962#0 1188072962#1 1188072962#2 1188072962#5 1188072962#7 1188072962#8 1229257704#0 1229257704#1 1229257704#2 1229257704#4 1229257704#5 1229257704#7 1229257704#8 -26748566#7 -26748566#6 -1296560854 -206819373#1 -206819373#0"/>
    </vehicle>
    <vehicle id="low_13" type="car" depart="26.00">
        <route edges="27201835#0 27201835#1 27201835#2 27201835#3 25466339#11 25466339#12 25466339#13 1211074477#0 1211074477#1 25466396#0 25466396#1 25466396#2 25466396#4 25466396#5 26886533#0 26886533#1 206812357#0 206812357#1 206812357#3 206812357#4 206812357#5 206812357#6 206812357#7"/>
    </vehicle>
    <vehicle id="low_14" type="bike" depart="28.00">
        <route edges="27189862 1229256130#5 1229256130#6 27189857#0 -33927962#3 -33927962#2 -33927962#1 426378532#3 426378532#4 1055338019#0 1055338019#1 1055338019#2 1055338019#4 1202063737#0 1202063737#1 1202063737#2 1202063737#3 26524553#0 -27189977#2 -27189977#1 -27189977#0 25459918#2"/>
    </vehicle>
    <vehicle id="low_15" type="car" depart="30.00">
        <route edges="1156857454 1156857454-AddedOffRampEdge 209513223 1349707178#1 1349707178#2 1349707178#3 1349707178#5 1349707178#6 1349707178#7 1349707178#8 1349707178#9 1349707178#10 843860857#0 843860857#1 843860857#2 843860857#3 1368959639 1288869985 1447854050 209535253#4 209535253#5 209535253#6 209535253#7 214162293#1 1342417607 692208071"/>
    </vehicle>
    <vehicle id="low_16" type="car" depart="32.00">
        <route edges="-27202513#3 -27202513#2 27189966 -27189964#0 27201956#3 27201956#4 27201956#5 27201956#6 27201956#7 27201956#8 27201956#9 27201956#10 27201956#11 27201956#12 27189960#1 27189960#2 27189960#3 27189960#4 -27200598#4 -27200598#3 -27189833#2 -27189833#1 27189834#1 214598754#0 214598754#2 214598754#3 214598754#4 214598754#5 1304764386#0 1304764386#1 1304764386#2 1304764385 214598755#0 214598755#1 214598755#2 25459233#0 25459233#1 25459233#2 25459233#3 25459233#4 1373625405 27189809#0 1361642210"/>
    </vehicle>
    <vehicle id="low_17" type="car" depart="34.00">
        <route edges="27189978#3 27189978#4 -27347318#0 -25466310#1 -25466310#0 1270815079#2 1270815079#3 -1035888752 -1049522243#1 -1049522243#0 25466413#0 25466413#1 25466413#2 25466413#3 25466413#4 25466477 -25459293#4 -25459293#3 -25459293#2 -25459293#1 -1323786814 -1267322167 209514726#0 209514726#1 209514726#2"/>
    </vehicle>
    <vehicle id="low_18" type="bike" depart="36.00">
        <route edges="27346876#1 -27346876#1 -27346876#0 101176398#4 25466266#0 25466266#1 25466266#2 25466266#3 25466266#4 25466266#5 25466266#6 25466266#7 -26524735#4 -26524735#3 -26524735#2 -26524735#1 -28632290#12 -28632290#10 -28632290#9 -28632290#8 -28632290#7 -28632290#6 -28632290#5 -28632290#3 -28632290#2 -28632290#1 -28632290#0 1040454950#0 1040454950#1 1040454950#2 1040454950#3 1040454950#4 1040454950#5 1040454950#6 1144623265#0 1144623265#1 1303180229#0 1303180229#1 1303180229#2 1303180229#3 1110246915#0 1040454951 274724534#0 274724534#1 274724534#2 274724534#3 274724534#4 1363130879#0 1363130879#1 1363130879#2 1363130879#4 -184913365#8 -184913365#7 -184913365#6 -184913365#5 -184913365#4 184913337#0 184913337#1 184913337#2"/>
    </vehicle>
    <vehicle id="low_19" type="car" depart="38.00">
        <route edges="217798331#0 217798331#1 217798331#2 27198627#3 27198627#4 27198627#5 27198627#6 1296568961 1363508013#0 1363508013#1 1363508013#2 1363508013#3 1363508013#4 1125360268#0 1125360268#1 1125360268#2 1125360268#3 1125360268#4 1114825837 1110246914 588367501#6 274724534#0 274724534#1 274724534#2 274724534#3 274724534#4 1363130879#0 1363130879#1 1363130879#2 1363130879#4 -383931208#7 -383931208#6 -383931208#5 -383931208#3 -383931208#2 -383931208#1 -383931208#0 -26607757#2 -26607757#1 -26607757#0 -33876640#7 -33876640#5 -27828326#1 -27828326#0 -1434303700#1 -1434303700#0 -102661710#0 -1281940342"/>
    </vehicle>
    <vehicle id="low_20" type="bike" depart="40.00">
        <route edges="-218221705 27347309#10 27347309#11 -27434060#0 1268115264#1 663777607#0 663777607#1 -1267371252 588373916#2 588373916#3 663777606#0 663777606#1 663777606#2 1268115268 1268115267 58503040#0 58503040#1 58503040#2 58503040#3 101176398#0 101176398#2 101176398#3 101176398#4 101176398#6 25466310#0 25466310#1 25466310#2 25466310#4 25466310#5 25466310#6 25466310#7 25466310#8 25466310#10 25466310#12 25466310#14 25466310#15 25466310#16 25466310#17 25459576#0 25459576#1 27202021 25459949#0 27201956#0 27201956#1 27201956#2 27201956#3 27201956#4 27201956#5 27201956#6 27201956#7 27201956#8 -25459322#4 -25459322#2 27202602#0 27202602#1 27202602#2 27202602#3 27202602#4 -27202602#4"/>
    </vehicle>
    <vehicle id="low_21" type="bike" depart="42.00">
        <route edges="-1269354623 -1269354622#3 -1269354622#2 -1269354622#1 -1269354622#0 -26748566#1 -26748566#0 26607757#0 26607757#1 26607757#2 383931208#0 383931208#1 383931208#2 -1388508386 -33876670#4 1269297807#0 1269297807#1 1269297807#2 1269297807#4 1269297807#5 26621177#0 26621177#1 26621177#2 26621177#3 26621177#4 26621177#5 -27189817#0"/>
    </vehicle>
    <vehicle id="low_22" type="car" depart="44.00">
        <route edges="-130792421#2 130792421#2 130792421#3 1229033619#3 58503040#1 58503040#2 58503040#3 101176398#0 101176398#2 101176398#3 101176398#4 101176398#6 1270815079#2 1270815079#3 25466402#0 25466402#1 -27199376#3 -27199376#2"/>
    </vehicle>
    <vehicle id="low_23" type="car" depart="46.00">
        <route edges="189500792 1464522331#1 1464522331#2 1323862825#0 -23163951#2 -23163951#1 23163970 604135772#1 1323786815 25459293#1 25459293#2 25459293#3 25459293#4 -28087774#3 -28087774#2 -28087774#1 -28087774#0 -26525766#3 -26525766#2 -26525766#1 -26525766#0 1202063738#0 1202063738#1 1202063738#2 1202063738#3 1202063738#4 1202063738#5 26524548#0 26524548#1 26524548#2 -240514422#1 -240514422#0 1188777679#0 1188777679#1 215526706#1 215526706#2 215526706#4 215526706#5 215526706#6 215526706#7 215526706#8 215526706#9 1358566878 1384508872 1315064086#0 1315064084 28622115#0 28622115#1 28622115#2 28622115#4 28622115#5 28622115#6 28622115#7 28622115#9 28622115#10 28622115#12 28622115#13 28622115#14 -206812363#2 -206812363#1 -206812363#0 -26748567#6 -26748567#5 -33876071"/>
    </vehicle>
    <vehicle id="low_24" type="auto" depart="48.00">
        <route edges="-27201478 -27189973#0 25466496#4 1296566889#0 1296566889#1 25466413#0 25466413#1 25466413#2 25466413#3 25466413#4 25466477 -25459293#4 -25459293#3 -25459293#2 -25459293#1 -1323786814 -1267322167 209514726#0 209514726#1 209514726#2 760471615#1 209535251#0 209535247#0 209535247#1 209535247#2 209535247#3 1189127458#0 1189127458#1 1189127458#2 27191864#0 27191864#1 26524352#0 -26524352#0"/>
    </vehicle>
    <vehicle id="low_25" type="car" depart="50.00">
        <route edges="-240514423#7 240514423#7 240514423#8 215526706#1 215526706#2 215526706#4 215526706#5 215526706#6 215526706#7 215526706#8 215526706#9 1358566878 -26621177#6 -26621177#5 -26621177#4 -26621177#3 -26621177#2 -26621177#1 -26621177#0 -1269297807#5 -1269297807#4 -1269297807#2 -1269297807#1 -1269297807#0 33876670#4 1388508386 -383931208#2 -383931208#1 -383931208#0 217750110 -33876644#10 -33876644#9 -33876644#7 -33876644#6 -33876644#5 -33876644#4 26748567#0 26748567#1 33876068#2"/>
    </vehicle>
    <vehicle id="low_26" type="car" depart="52.00">
        <route edges="206828306#0 206828306#1 -184913351#0 -26748566#2 1269354622#0 1269354622#1 1269354622#2 1269354622#3 184913358#0 184913358#1 184913358#2 206819361"/>
    </vehicle>
    <vehicle id="low_27" type="car" depart="54.00">
        <route edges="-214202953 1296566889#0 1296566889#1 25466413#0 25466413#1 25466413#2 25466413#3 25466413#4 25466477 -28087774#3 -28087774#2 -28087774#1 -28087774#0 -26525766#3 -26525766#2 -26525766#1 -26525766#0 -25459372#3 25459372#3"/>
    </vehicle>
    <vehicle id="low_28" type="bike" depart="56.00">
        <route edges="-206819366 -217750113#7 -217750113#6 -217750113#5 -217750113#3 -217750113#2 -217750113#1 -217750113#0 -217750135#4 -217750135#3 27190020#2 -217750133#2 -217750133#0 -27190012#1 588367501#3 588367501#4 588367501#5 -1110246914 -1114825837 1125360269#0 1125360269#1 1125360269#2 1125360269#3 426378532#0 426378532#1 426378532#2 426378532#3 426378532#4 1055338019#0 1055338019#1 1055338019#2 1055338019#4 1202063737#0 1202063737#1 1202063737#2 1202063737#3 26524553#0 26524553#1 25466310#0 25466310#1 25466310#2 25466310#4 25466310#5 25466310#6 25466310#7 25466310#8 -27201854#3 -27201854#2 412956332 -412956333#0"/>
    </vehicle>
    <vehicle id="low_29" type="bike" depart="58.00">
        <route edges="995114828 27432184#1 27432453#6 1229033619#1 1229033619#2 1229033619#3 1229033619#4 1229033619#5 1268115264#0 1268115264#1 663777607#0 663777607#1 1040430248#1 1036789426 838093323 1049511450#0 1049511450#1 58502978#0 58502978#1 1210961436#0 1210961436#1 1210961436#2 588367501#0 588367501#1 588367501#2 588367501#3 588367501#4 588367501#5 588367501#6 274724531#0 274724531#1 -26621212#10 -26621212#9 -26621212#8 -26621212#7 -26621212#6 -26621212#5 -26621212#4 -26621212#3 217745301#0 217745301#1"/>
    </vehicle>
    <vehicle id="low_30" type="bike" depart="60.00">
        <route edges="1249393975#0 -22976235#0 -25459949#1 -25459949#0 -27202021 -25459576#1 -25459576#0 -25466310#17 -25466310#16 -25466310#15 -25466310#14 -25466310#12 -25466310#10 -25466310#8 -25466310#7 -25466310#6 -25466310#5 -25466310#4 -25466310#2 -25466310#1 -25466310#0 -101176398#6 25466266#0 25466266#1 25466266#2 25466266#3 25466266#4 25466266#5 25466266#6 25466266#7 34549705#0 34549705#1 34549705#2 34549705#3 1268115264#0 1268115264#1 1313198080 663777602#0-AddedOnRampEdge 663777602#0 663777602#1 -1193479865 -27346928#4 -27346928#3 -27346928#2 -27346928#0 27346929#0 27346929#1 218221713#0 218221713#1"/>
    </vehicle>
    <vehicle id="low_31" type="bike" depart="62.00">
        <route edges="27198759#1 27198759#2 -28632290#10 -28632290#9 -28632290#8 -28632290#7 -28632290#6 -28632290#5 -28632290#3 -28632290#2 -28632290#1 -28632290#0 -588374658 1210961436#0 1210961436#1 1210961436#2 588367501#0 588367501#1 588367501#2 588367501#3 588367501#4 588367501#5 588367501#6 274724531#0 274724531#1 274724531#2 274724531#2-AddedOffRampEdge 274724531#3 1384508872 1315064086#0 1315064086#1 1315064085#0 27189815#0 27189815#1"/>
    </vehicle>
    <vehicle id="low_32" type="car" depart="64.00">
        <route edges="-218221711 27453137#1 27453137#2 68536153#0 68536153#1 68536153#2 68536153#3 68536153#4 27461037#0 27461037#1 27470620#0 -218221715#1 -1188257820 418880841#7 1137982400 1137982398#0 1137982398#1 102547886#1 102547886#2 102547886#3 102547886#4 102547886#5 1151688948#0 1151688948#1 1151688948#2 1040143394#0 1281942588 418882860#1 418882860#2 1313198082 663777606#0 663777606#1 663777606#2 1268115268 1268115267 58503040#0 58503040#1 58503040#2 58503040#3 101176398#0 101176398#2 101176398#3 101176398#4 101176398#6 1270815079#2 1270815079#3 25466402#0 25466402#1 -27199376#3 1434315088#0 1434315088#1 -1268552928"/>
    </vehicle>
    <vehicle id="low_33" type="auto" depart="66.00">
        <route edges="-27189827 1314888278#1 32875901#2 32875901#3 32875901#4 26525766#0 26525766#1 26525766#2 26525766#3 28087774#0 28087774#1 28087774#2 28087774#3 25466417 27201301 -1211074477#0 -25466339#13 -25466339#12 -25466339#11 -25466339#9 -25466339#7 -25466339#6 -25466339#5 -25466339#4 -25466339#2 -25466339#1 -25466339#0 -27202021 -25459576#1 27189993#0 -27189993#0"/>
    </vehicle>
    <vehicle id="low_34" type="car" depart="68.00">
        <route edges="-217753812 1434303700#1 27828326#0 27828326#1 33876640#5 33876640#7 26607757#0 26607757#1 26607757#2 217750110 -33876644#10 -33876644#9 -33876644#7 -33876644#6 -33876644#5 33876644#5"/>
    </vehicle>
    <vehicle id="low_35" type="car" depart="70.00">
        <route edges="27346929#4 -27346929#4 -27346929#3 -27346929#1 -27346929#0 27346928#0 27346928#2 27346928#3 27346928#4 1193479865 418880841#0 418880841#1 418880841#3 418880841#4 418880841#5 418880841#6 418880841#7 1137982400 1137982398#0 1137982398#1 102547886#1 102547886#2 102547886#3 102547886#4 102547886#5 1151688948#0 1151688948#1 1151688948#2 1040143394#0 1281942588 418882860#1 418882860#2 836742076#0 836742076#1 836742076#2 836742076#3 588361833 1036443392 588373916#0 1267371252 1040430248#1 27346902#0 -692053064#2 -692053064#1 -692053064#0 27346909#1 -27347309#11 -27347309#10 -27347309#9 -27347309#8"/>
    </vehicle>
    <vehicle id="low_36" type="bike" depart="72.00">
        <route edges="209535253#7 -23047839 -189493180#8 -189493180#7 -189493180#6 -189493180#4 -189493180#3 -189493180#2 -189493180#1 -189493180#0 -1351796582#1 1349723862#1 209535248#0 209535248#1 209535248#2 209535248#3 209535232 760471616#0 760471616#1 760471616#2 760471616#3 760471616#4 760471616#5 1267322167 1323786815 25459293#1 25459293#2 25459293#3 25459293#4 -28087774#3 -28087774#2 -28087774#1 -28087774#0 -26525766#3 -26525766#2 -26525766#1 -26525766#0 1202063738#0 1202063738#1 1202063738#2 1202063738#3 1202063738#4 1202063738#5 26524548#0 26524548#1 26524548#2 -240514422#1 -240514422#0 1188777679#0 1188777679#1 -995109115#1 -995109115#0"/>
    </vehicle>
    <vehicle id="low_37" type="bike" depart="74.00">
        <route edges="27945135#1 995147928 -26619453#1 -26619453#0 26607712#5 33876670#0 33876670#1 33876670#2 33876670#3 1269297807#0 1269297807#1 1269297807#2 1269297807#4 1269297807#5 26621177#0 26621177#1 26621177#2 26621177#3 26621177#4 26621177#5 26621177#6 -1358566878 -215526706#9 -215526706#8 -215526706#7 -215526706#6 -215526706#5 -215526706#4 -215526706#2 -215526706#1 -1188777679#1 -1188777679#0 240514422#0 240514422#1 -26524548#2 -26524548#1 -26524548#0 27199953#0 27199953#1 27199953#2 27199953#3 1055338019#0 1055338019#1 1055338019#2 1055338019#4 1202063737#0 1202063737#1 1202063737#2 1202063737#3 1035888752 25466402#0 25466402#1 25466402#2 25466402#3 34549705#0 34549705#1 34549705#2 34549705#3 1391535377 -27433076#3 -27433076#2 -27433076#1 -27433076#0 130792421#2 130792421#3 1229033619#3"/>
    </vehicle>
    <vehicle id="low_38" type="bus" depart="76.00">
        <route edges="-23698638#7 -23698638#6 -23698638#5 -23698638#4 -23698638#3 -23698636#1 1238038906 1391532692 1229033619#1 1229033619#2 1229033619#3 1229033619#4 1229033619#5 1268115264#0 1268115264#1 663777607#0 663777607#1 1040430248#1 838093322 1110246916 1123278059#0 1123278059#1 1040454950#0 1040454950#1 1040454950#2 1040454950#3 1040454950#4 1040454950#5 1040454950#6 1144623265#0 1144623265#1 1303180229#0 1303180229#1 1303180229#2 1303180229#3 -1114825837 1125360269#0 1125360269#1 1125360269#2 1125360269#3 -27189869#4"/>
    </vehicle>
    <vehicle id="low_39" type="car" depart="78.00">
        <route edges="1296567702#0 -214356716 1049522243#1 1035888752 25466402#0 25466402#1 25466402#2 25466402#3 34549705#0 34549705#1 34549705#2 34549705#3 1268115264#0 1268115264#1 1313198080 663777602#0-AddedOnRampEdge 663777602#0 663777602#1 418880841#0 418880841#1 418880841#3 418880841#4 418880841#5 418880841#6 418880841#7 1137982400 27461040#0"/>
    </vehicle>
    <vehicle id="low_40" type="bike" depart="80.00">
        <route edges="-27346939#1 -217754784#0 -68525928 1210961436#1 1210961436#2 588367501#0 588367501#1 588367501#2 588367501#3 588367501#4 588367501#5 588367501#6 274724531#0 274724531#1 -26621212#10 -26621212#9 -26621212#8 -26621212#7 -26621212#6 -26621212#5 -26621212#4"/>
    </vehicle>
    <vehicle id="low_41" type="car" depart="82.00">
        <route edges="995150158 -1229257704#8 -1229257704#7 -1229257704#5 -1229257704#4 -1229257704#2 -1229257704#1 -1229257704#0 -1188072962#8 -1188072962#7 -1188072962#5 -1188072962#2 -1188072962#1 -1188072962#0 588367501#0 588367501#1 588367501#2 588367501#3 588367501#4 588367501#5 -1110246914 -1114825837 1125360269#0 1125360269#1 1125360269#2 1125360269#3 426378532#0 426378532#1 426378532#2 426378532#3 426378532#4 1055338019#0 1055338019#1 1055338019#2 1055338019#4 1202063737#0 1202063737#1 1202063737#2 1202063737#3 26524553#0 26524553#1 25466310#0 25466310#1 25466310#2 25466310#4 25466310#5 25466310#6 25466310#7 25466310#8 25466310#10 25466310#12 25466310#14 25466310#15 25466310#16 25466310#17 25459576#0 25459576#1 25466488#4 -1193709799#2 1270468040"/>
    </vehicle>
    <vehicle id="low_42" type="car" depart="84.00">
        <route edges="-1280152274 -206819375#0 27199953#1 27199953#2 27199953#3 1363508013#1 1363508013#2 1363508013#3 1363508013#4 1125360268#0 1125360268#1 1125360268#2 1125360268#3 1125360268#4 1114825837 1110246914 588367501#6 274724531#0 274724531#1 274724531#2 274724531#2-AddedOffRampEdge 274724531#3 1384508872 1315064086#0 1315064084 28622115#0 28622115#1 28622115#2 28622115#4 28622115#5 28622115#6 28622115#7 28622115#9 28622115#10 28622115#12 28622115#13 28622115#14 -206812363#2 -1281948732"/>
    </vehicle>
    <vehicle id="low_43" type="car" depart="86.00">
        <route edges="-1322515344#1 -1322515344#0 1322515344#0 1322515344#1 -184913298#0 25459210#3 25459210#4 25459210#5 25459210#6 25459210#7 25459210#8 25459210#9 25459210#11 25459210#12 25459210#13 25459210#16 25459210#18 25459210#19 25459210#20 25459210#22 25459210#23 25459210#24 25459210#25 25459209#2 27189812#0 27189812#1 -26763826#3 -26763826#1 214356683#1 214356683#2 214356683#3 214356683#4 214356683#5"/>
    </vehicle>
    <vehicle id="low_44" type="car" depart="88.00">
        <route edges="27189806#3 27189808#0 27189808#1 -215526706#8 -215526706#7 -215526706#6 -215526706#5 -215526706#4 -215526706#2 -215526706#1 -1188777679#1 -1188777679#0 240514422#0 240514422#1 -26524548#2 -26524548#1 -26524548#0 27199953#0 27199953#1 27199953#2 27199953#3 1055338019#0 1055338019#1 1055338019#2 1055338019#4 1202063737#0 1202063737#1 1202063737#2 1202063737#3 1035888752 25466402#0 25466402#1 25466402#2 25466402#3 34549705#0 34549705#1 34549705#2 34549705#3 1268115264#0 1268115264#1 663777607#0 663777607#1 1040430248#1 27346902#0 27346902#1 27346902#2 1092250361#0 1092250361#2 1092250361#3 1092250361#4 1092250361#5 1092250361#6"/>
    </vehicle>
    <vehicle id="low_45" type="car" depart="90.00">
        <route edges="-126856132#0 25459210#18 25459210#19 25459210#20 25459210#22 25459210#23 25459210#24 25459210#25 25459209#2 25459233#2 25459233#3 25459233#4 1373625405 27189809#0 27189809#2 27189809#3 27189809#4 27189809#5 27189809#6 27189809#7 32875901#0 32875901#2 32875901#3 32875901#4 1202063738#0 1202063738#1 1202063738#2 1202063738#3 1202063738#4 1202063738#5 27199953#0 27199953#1 27199953#2 27199953#3 1363508013#1 33927962#1 33927962#2 33927962#3 -27189857#0 27189858#0 27189858#1 27189858#2 27189858#3 -58503080"/>
    </vehicle>
    <vehicle id="low_46" type="car" depart="92.00">
        <route edges="995149296 -26748566#3 -26748566#2 -26748566#1 -26748566#0 26607757#0 26607757#1 26607757#2 383931208#0 383931208#1 383931208#2 -1388508386 -33876670#4 -33876670#3 -33876670#2 -33876670#1 -33876670#0 -28622115#14 -28622115#13 -28622115#12 -28622115#10 -28622115#9 -28622115#7 -28622115#6 -28622115#5 -28622115#4 -28622115#2 -28622115#1 -28622115#0 1298017347"/>
    </vehicle>
    <vehicle id="low_47" type="car" depart="94.00">
        <route edges="692140459#2 27189869#3 27189869#4 426378532#0 426378532#1 426378532#2 426378532#3 426378532#4 1055338019#0 1055338019#1 1055338019#2 1055338019#4 1202063737#0 1202063737#1 1202063737#2 1202063737#3 1035888752 25466402#0 25466402#1 25466402#2 25466402#3 34549705#0 34549705#1 34549705#2 34549705#3 1268115264#0 27434060#0 -27346909#1 -27346909#0 27346909#0"/>
    </vehicle>
    <vehicle id="low_48" type="bike" depart="96.00">
        <route edges="-1131526947 27189858#3 28632290#5 28632290#6 28632290#7 28632290#8 28632290#9 28632290#10 28632290#12 26524735#1 26524735#2 26524735#3 26524735#4 34549705#0 34549705#1 34549705#2 34549705#3 1391535377 -27433076#3 -27433076#2 -27433076#1 -27433076#0 -25466498#6 -25466498#5 -25466498#4 -25466498#3 -25466498#2 -25466498#1 -25466498#0 -27432453#3 -23698648#2 23698648#2"/>
    </vehicle>
    <vehicle id="low_49" type="car" depart="98.00">
        <route edges="217747501 -184913337#0 184913365#4 184913365#5 184913365#6 184913365#7 184913365#8 383931208#8 -1363130879#2 -1363130879#1 -1363130879#0 -274724534#4 -274724534#3 -274724534#2 -274724534#1 -274724534#0 274724531#0 274724531#1 274724531#2 274724531#2-AddedOffRampEdge 274724531#3 1384508872 1315064086#0 1315064086#1 1315064085#0 1315064085#1 25459209#0 25459209#1 25459209#2 25459209#3 -214598755#2 -214598755#1 -214598755#0 1452295040 -209513217 1452295041 72850475#1 27191864#2 -23163955#2 1311148802#0 1311148803#0 1311148807"/>
    </vehicle>
    <vehicle id="low_50" type="car" depart="100.00">
        <route edges="-240514423#6 240514423#6 240514423#7 240514423#8 215526706#1 215526706#2 215526706#4 215526706#5 215526706#6 215526706#7 215526706#8 215526706#9 1358566878 1384508872 1315064086#0 1315064084 28622115#0 28622115#1 28622115#2 28622115#4 28622115#5 28622115#6 28622115#7 -28653965#4 -217745302#3 -217745302#2 217745302#2"/>
    </vehicle>
    <vehicle id="low_51" type="car" depart="102.00">
        <route edges="-1324641901 1137982398#1 102547886#1 102547886#2 102547886#3 102547886#4 102547886#5 1151688948#0 1151688948#1 1151688948#2 1040143394#0 1281942588 418882860#1 418882860#2 836742076#0 836742076#1 836742076#2 1310172814 69610262#1 69610262#2 69610262#3 69610262#4 69610262#5 69610262#6 663777602#0-AddedOnRampEdge 663777602#0 663777602#1 418880841#0 418880841#1 418880841#3 418880841#4 418880841#5 418880841#6 418880841#7 1137982400 1137982398#0"/>
    </vehicle>
    <vehicle id="low_52" type="car" depart="104.00">
        <route edges="-33560262 102547886#3 102547886#4 102547886#5 1151688948#0 1151688948#1 1151688948#2 1040143394#0 1281942588 418882860#1 418882860#2 836742076#0 836742076#1 836742076#2 1310172814 69610262#1 69610262#2 69610262#3 69610262#4 69610262#5 69610262#6 663777602#0-AddedOnRampEdge 663777602#0 663777602#1 418880841#0 418880841#1"/>
    </vehicle>
    <vehicle id="low_53" type="truck" depart="106.00">