<?xml version='1.0' encoding='utf-8'?>
<routes>
  <vType id="pedestrian" vClass="pedestrian" maxSpeed="1.5" />
  <person id="ped_0" depart="1729">
    <walk edges="-101176398#0 -101176398#2" />
  </person>
  <person id="ped_1" depart="2833">
    <walk edges="-101176398#0 -27346868#4" />
  </person>
  <person id="ped_2" depart="2486">
    <walk edges="-218226966 218226966" />
  </person>
  <person id="ped_3" depart="2345">
    <walk edges="218226966 -218226966" />
  </person>
  <person id="ped_4" depart="1060">
    <walk edges="218226966 101176398#0" />
  </person>
  <person id="ped_5" depart="1347">
    <walk edges="-101176398#2 -27346868#4" />
  </person>
  <person id="ped_6" depart="840">
    <walk edges="101176398#0 -101176398#2" />
  </person>
  <person id="ped_7" depart="213">
    <walk edges="-218226966 -101176398#0" />
  </person>
  <person id="ped_8" depart="548">
    <walk edges="-27346868#4 101176398#2" />
  </person>
  <person id="ped_9" depart="980">
    <walk edges="-101176398#0 101176398#0" />
  </person>
  <person id="ped_10" depart="244">
    <walk edges="-218226966 -101176398#2" />
  </person>
  <person id="ped_11" depart="499">
    <walk edges="-101176398#0 101176398#0" />
  </person>
  <person id="ped_12" depart="2669">
    <walk edges="101176398#2 -218226966" />
  </person>
  <person id="ped_13" depart="3164">
    <walk edges="-218226966 -101176398#0" />
  </person>
  <person id="ped_14" depart="2605">
    <walk edges="-101176398#2 -218226966" />
  </person>
  <person id="ped_15" depart="1930">
    <walk edges="27346868#4 -218226966" />
  </person>
  <person id="ped_16" depart="3462">
    <walk edges="-101176398#0 -218226966" />
  </person>
  <person id="ped_17" depart="3314">
    <walk edges="-27346868#4 -101176398#0" />
  </person>
  <person id="ped_18" depart="853">
    <walk edges="-27346877 -101176398#6" />
  </person>
  <person id="ped_19" depart="992">
    <walk edges="-101176398#6 27346877" />
  </person>
  <person id="ped_20" depart="3468">
    <walk edges="-25466266#0 27346877" />
  </person>
  <person id="ped_21" depart="2784">
    <walk edges="-27346877 101176398#6" />
  </person>
  <person id="ped_22" depart="2255">
    <walk edges="-25466266#0 -101176398#6" />
  </person>
  <person id="ped_23" depart="1685">
    <walk edges="25466266#0 -101176398#6" />
  </person>
  <person id="ped_24" depart="945">
    <walk edges="-25466266#0 101176398#6" />
  </person>
  <person id="ped_25" depart="3352">
    <walk edges="101176398#4 -25466266#0" />
  </person>
  <person id="ped_26" depart="2341">
    <walk edges="-101176398#4 -25466266#0" />
  </person>
  <person id="ped_27" depart="3100">
    <walk edges="25466266#0 -25466266#0" />
  </person>
  <person id="ped_28" depart="3496">
    <walk edges="25466266#0 101176398#4" />
  </person>
  <person id="ped_29" depart="2960">
    <walk edges="27346877 -101176398#4" />
  </person>
  <person id="ped_30" depart="3359">
    <walk edges="-25466266#0 25466266#0" />
  </person>
  <person id="ped_31" depart="2179">
    <walk edges="25466266#0 101176398#6" />
  </person>
  <person id="ped_32" depart="1582">
    <walk edges="101176398#4 -101176398#6" />
  </person>
  <person id="ped_33" depart="1401">
    <walk edges="25466310#0 101176398#6" />
  </person>
  <person id="ped_34" depart="573">
    <walk edges="1270815079#1 26524553#2" />
  </person>
  <person id="ped_35" depart="2414">
    <walk edges="26524553#2 -25466310#0" />
  </person>
  <person id="ped_36" depart="129">
    <walk edges="-25466310#0 26524553#1" />
  </person>
  <person id="ped_37" depart="278">
    <walk edges="101176398#6 -101176398#6" />
  </person>
  <person id="ped_38" depart="2463">
    <walk edges="1270815079#2 25466310#0" />
  </person>
  <person id="ped_39" depart="16">
    <walk edges="1270815079#1 -101176398#6" />
  </person>
  <person id="ped_40" depart="1403">
    <walk edges="26524553#2 25466310#0" />
  </person>
  <person id="ped_41" depart="1600">
    <walk edges="26524553#1 26524553#2" />
  </person>
  <person id="ped_42" depart="1166">
    <walk edges="26524553#2 26524553#1" />
  </person>
  <person id="ped_43" depart="2202">
    <walk edges="1270815079#2 1270815079#1" />
  </person>
  <person id="ped_44" depart="1539">
    <walk edges="-25466310#0 25466310#0" />
  </person>
  <person id="ped_45" depart="2205">
    <walk edges="1270815079#2 -25466310#0" />
  </person>
  <person id="ped_46" depart="2412">
    <walk edges="25466310#0 26524553#2" />
  </person>
  <person id="ped_47" depart="380">
    <walk edges="25466310#0 -101176398#6" />
  </person>
  <person id="ped_48" depart="2043">
    <walk edges="25466310#0 26524553#2" />
  </person>
  <person id="ped_49" depart="324">
    <walk edges="101176398#6 -25466310#0" />
  </person>
  <person id="ped_50" depart="3131">
    <walk edges="25466310#0 26524553#1" />
  </person>
  <person id="ped_51" depart="2816">
    <walk edges="1270815079#2 -101176398#6" />
  </person>
  <person id="ped_52" depart="2615">
    <walk edges="25466310#0 101176398#6" />
  </person>
  <person id="ped_53" depart="3272">
    <walk edges="101176398#6 1270815079#1" />
  </person>
  <person id="ped_54" depart="3477">
    <walk edges="26524553#1 -25466310#0" />
  </person>
  <person id="ped_55" depart="384">
    <walk edges="26524553#1 101176398#6" />
  </person>
  <person id="ped_56" depart="493">
    <walk edges="25466310#0 26524553#2" />
  </person>
  <person id="ped_57" depart="2313">
    <walk edges="1270815079#1 -101176398#6" />
  </person>
  <person id="ped_58" depart="1720">
    <walk edges="23698638#6 -1016263227#1" />
  </person>
  <person id="ped_59" depart="68">
    <walk edges="-23698638#5 27346859#1" />
  </person>
  <person id="ped_60" depart="3261">
    <walk edges="23698638#5 1016263227#1" />
  </person>
  <person id="ped_61" depart="2514">
    <walk edges="1016263227#1 -1016263227#1" />
  </person>
  <person id="ped_62" depart="3049">
    <walk edges="1016263227#1 23698638#6" />
  </person>
  <person id="ped_63" depart="3385">
    <walk edges="23698638#5 -23698638#5" />
  </person>
  <person id="ped_64" depart="109">
    <walk edges="-1016263227#0 -1016263227#1" />
  </person>
  <person id="ped_65" depart="2292">
    <walk edges="-23698638#5 -1016263227#1" />
  </person>
  <person id="ped_66" depart="3350">
    <walk edges="-1016263227#0 23698638#5" />
  </person>
  <person id="ped_67" depart="15">
    <walk edges="-23698638#6 1016263227#1" />
  </person>
  <person id="ped_68" depart="1719">
    <walk edges="27346859#1 23698638#5" />
  </person>
  <person id="ped_69" depart="861">
    <walk edges="-23698638#5 23698638#5" />
  </person>
  <person id="ped_70" depart="980">
    <walk edges="27346859#1 -1016263227#1" />
  </person>
  <person id="ped_71" depart="1089">
    <walk edges="-23698638#5 27346859#1" />
  </person>
  <person id="ped_72" depart="2964">
    <walk edges="23698638#6 27346859#1" />
  </person>
  <person id="ped_73" depart="874">
    <walk edges="23698638#6 23698638#5" />
  </person>
  <person id="ped_74" depart="629">
    <walk edges="-23698638#5 23698638#5" />
  </person>
  <person id="ped_75" depart="1684">
    <walk edges="23698638#4 -23698638#4" />
  </person>
  <person id="ped_76" depart="2492">
    <walk edges="-23698638#5 23698638#5" />
  </person>
  <person id="ped_77" depart="42">
    <walk edges="-27346859#0 1016263228#1" />
  </person>
  <person id="ped_78" depart="2942">
    <walk edges="-1016263228#0 1016263228#0" />
  </person>
  <person id="ped_79" depart="3275">
    <walk edges="-1016263228#0 1016263228#0" />
  </person>
  <person id="ped_80" depart="1260">
    <walk edges="23698638#5 -27346859#0" />
  </person>
  <person id="ped_81" depart="257">
    <walk edges="-23698638#5 -27346859#0" />
  </person>
  <person id="ped_82" depart="409">
    <walk edges="-1016263228#0 -23698638#4" />
  </person>
  <person id="ped_83" depart="1869">
    <walk edges="-27346859#0 23698638#4" />
  </person>
  <person id="ped_84" depart="1702">
    <walk edges="-27346859#0 23698638#4" />
  </person>
  <person id="ped_85" depart="2066">
    <walk edges="-23698638#5 1016263228#1" />
  </person>
  <person id="ped_86" depart="2953">
    <walk edges="1016263228#1 -23698638#5" />
  </person>
  <person id="ped_87" depart="1107">
    <walk edges="1016263228#0 -23698638#4" />
  </person>
  <person id="ped_88" depart="2160">
    <walk edges="-23698638#5 23698638#5" />
  </person>
  <person id="ped_89" depart="1779">
    <walk edges="1016263228#1 -23698638#5" />
  </person>
  <person id="ped_90" depart="327">
    <walk edges="-1016263228#0 1016263228#0" />
  </person>
  <person id="ped_91" depart="2645">
    <walk edges="23698638#5 -23698638#5" />
  </person>
  <person id="ped_92" depart="506">
    <walk edges="1016263228#0 -1016263228#0" />
  </person>
  <person id="ped_93" depart="2880">
    <walk edges="-27346859#0 1016263228#1" />
  </person>
  <person id="ped_94" depart="2572">
    <walk edges="23698638#4 1016263228#1" />
  </person>
  <person id="ped_95" depart="483">
    <walk edges="1016263228#1 23698638#5" />
  </person>
  <person id="ped_96" depart="1427">
    <walk edges="-1016263228#0 1016263228#1" />
  </person>
  <person id="ped_97" depart="1682">
    <walk edges="-23698638#5 1016263228#1" />
  </person>
  <person id="ped_98" depart="376">
    <walk edges="-1016263228#0 23698638#5" />
  </person>
  <person id="ped_99" depart="350">
    <walk edges="1016263228#1 1016263228#0" />
  </person>
  <person id="ped_100" depart="720">
    <walk edges="-27346859#0 23698638#5" />
  </person>
  <person id="ped_101" depart="624">
    <walk edges="1016263228#1 -23698638#4" />
  </person>
  <person id="ped_102" depart="2040">
    <walk edges="-27346859#0 -23698638#4" />
  </person>
  <person id="ped_103" depart="768">
    <walk edges="-1016263228#0 -23698638#5" />
  </person>
  <person id="ped_104" depart="1740">
    <walk edges="995150158 217753841#7" />
  </person>
  <person id="ped_105" depart="349">
    <walk edges="-217753820 217753841#7" />
  </person>
  <person id="ped_106" depart="448">
    <walk edges="217753841#7 995150158" />
  </person>
  <person id="ped_107" depart="2520">
    <walk edges="-102661710#3 217753841#7" />
  </person>
  <person id="ped_108" depart="2286">
    <walk edges="102661710#3 -33560370#0" />
  </person>
  <person id="ped_109" depart="2162">
    <walk edges="-217753820 217753841#5" />
  </person>
  <person id="ped_110" depart="731">
    <walk edges="995150158 -217753841#5" />
  </person>
  <person id="ped_111" depart="3063">
    <walk edges="217753841#7 -217753820" />
  </person>
  <person id="ped_112" depart="1641">
    <walk edges="-217753841#5 -102661710#3" />
  </person>
  <person id="ped_113" depart="1622">
    <walk edges="-217753841#5 -102661710#3" />
  </person>
  <person id="ped_114" depart="2472">
    <walk edges="-217753820 -102661710#3" />
  </person>
  <person id="ped_115" depart="3034">
    <walk edges="102661710#3 -217753820" />
  </person>
  <person id="ped_116" depart="535">
    <walk edges="-33560370#0 217753841#5" />
  </person>
  <person id="ped_117" depart="2922">
    <walk edges="-217753841#5 102661710#3" />
  </person>
  <person id="ped_118" depart="2392">
    <walk edges="-217753820 102661710#3" />
  </person>
  <person id="ped_119" depart="1182">
    <walk edges="-1049522243#1 1049522243#1" />
  </person>
  <person id="ped_120" depart="1148">
    <walk edges="26524553#0 -1035888752" />
  </person>
  <person id="ped_121" depart="2006">
    <walk edges="1035888752 -1035888752" />
  </person>
  <person id="ped_122" depart="2219">
    <walk edges="1035888752 -1035888752" />
  </person>
  <person id="ped_123" depart="641">
    <walk edges="-1035888752 -1049522243#1" />
  </person>
  <person id="ped_124" depart="2847">
    <walk edges="1202063737#3 -1035888752" />
  </person>
  <person id="ped_125" depart="2687">
    <walk edges="1202063737#3 26524553#0" />
  </person>
  <person id="ped_126" depart="539">
    <walk edges="26524553#0 -1049522243#1" />
  </person>
  <person id="ped_127" depart="1746">
    <walk edges="26524553#0 -1049522243#1" />
  </person>
  <person id="ped_128" depart="2125">
    <walk edges="-1049522243#1 1035888752" />
  </person>
  <person id="ped_129" depart="70">
    <walk edges="-274724534#0 274724534#0" />
  </person>
  <person id="ped_130" depart="2091">
    <walk edges="-1040454951 -274724534#0" />
  </person>
  <person id="ped_131" depart="346">
    <walk edges="-274724534#0 274724534#0" />
  </person>
  <person id="ped_132" depart="79">
    <walk edges="588367501#6 1040454951" />
  </person>
  <person id="ped_133" depart="3488">
    <walk edges="1040454951 -274724534#0" />
  </person>
  <person id="ped_134" depart="448">
    <walk edges="-1040454951 274724531#0" />
  </person>
  <person id="ped_135" depart="2048">
    <walk edges="-1040454951 274724534#0" />
  </person>
  <person id="ped_136" depart="377">
    <walk edges="274724531#0 1040454951" />
  </person>
  <person id="ped_137" depart="1272">
    <walk edges="274724531#0 274724534#0" />
  </person>
  <person id="ped_138" depart="2589">
    <walk edges="-1040454951 1040454951" />
  </person>
  <person id="ped_139" depart="2793">
    <walk edges="274724531#0 1040454951" />
  </person>
  <person id="ped_140" depart="773">
    <walk edges="274724531#0 588367501#6" />
  </person>
  <person id="ped_141" depart="2435">
    <walk edges="-274724534#0 1040454951" />
  </person>
  <person id="ped_142" depart="703">
    <walk edges="-274724534#0 274724531#0" />
  </person>
  <person id="ped_143" depart="910">
    <walk edges="274724534#0 -1040454951" />
  </person>
  <person id="ped_144" depart="837">
    <walk edges="588367501#6 1040454951" />
  </person>
  <person id="ped_145" depart="2700">
    <walk edges="274724534#0 -1040454951" />
  </person>
  <person id="ped_146" depart="3209">
    <walk edges="1040454951 -274724534#0" />
  </person>
  <person id="ped_147" depart="2322">
    <walk edges="274724534#0 1040454951" />
  </person>
  <person id="ped_148" depart="1100">
    <walk edges="274724534#0 -274724534#0" />
  </person>
  <person id="ped_149" depart="2244">
    <walk edges="1110246915#1 1110246915#0" />
  </person>
  <person id="ped_150" depart="653">
    <walk edges="1040454951 1110246915#1" />
  </person>
  <person id="ped_151" depart="1434">
    <walk edges="1040454951 1110246915#1" />
  </person>
  <person id="ped_152" depart="628">
    <walk edges="1110246915#1 -1040454951" />
  </person>
  <person id="ped_153" depart="1979">
    <walk edges="1110246915#1 -1040454951" />
  </person>
  <person id="ped_154" depart="156">
    <walk edges="1110246915#0 1110246915#1" />
  </person>
  <person id="ped_155" depart="458">
    <walk edges="1040454951 1110246915#1" />
  </person>
  <person id="ped_156" depart="1245">
    <walk edges="1110246915#0 -1040454951" />
  </person>
  <person id="ped_157" depart="1335">
    <walk edges="-1040454951 1040454951" />
  </person>
  <person id="ped_158" depart="1391">
    <walk edges="1110246915#1 1110246915#0" />
  </person>
  <person id="ped_159" depart="3198">
    <walk edges="1110246915#0 1110246915#1" />
  </person>
  <person id="ped_160" depart="152">
    <walk edges="-1040454951 1110246915#1" />
  </person>
  <person id="ped_161" depart="115">
    <walk edges="1040454951 1110246915#0" />
  </person>
  <person id="ped_162" depart="2605">
    <walk edges="1040454951 1110246915#0" />
  </person>
  <person id="ped_163" depart="1354">
    <walk edges="1040454951 1110246915#1" />
  </person>
  <person id="ped_164" depart="1258">
    <walk edges="1040454951 1110246915#0" />
  </person>
  <person id="ped_165" depart="1746">
    <walk edges="1110246915#0 -1040454951" />
  </person>
  <person id="ped_166" depart="2977">
    <walk edges="1110246915#1 1040454951" />
  </person>
  <person id="ped_167" depart="2843">
    <walk edges="1110246915#1 1110246915#0" />
  </person>
  <person id="ped_168" depart="1647">
    <walk edges="1110246915#1 1040454951" />
  </person>
  <person id="ped_169" depart="2707">
    <walk edges="-1040454951 1040454951" />
  </person>
  <person id="ped_170" depart="313">
    <walk edges="1110246915#0 1110246915#1" />
  </person>
  <person id="ped_171" depart="1930">
    <walk edges="1110246915#1 -1040454951" />
  </person>
  <person id="ped_172" depart="617">
    <walk edges="-1040454951 1110246915#1" />
  </person>
  <person id="ped_173" depart="2044">
    <walk edges="1040454951 1110246915#1" />
  </person>
  <person id="ped_174" depart="1053">
    <walk edges="-1040454951 1110246915#0" />
  </person>
  <person id="ped_175" depart="3171">
    <walk edges="1040454951 -1040454951" />
  </person>
  <person id="ped_176" depart="1815">
    <walk edges="1110246915#1 1110246915#0" />
  </person>
  <person id="ped_177" depart="627">
    <walk edges="-1040454951 1040454951" />
  </person>
  <person id="ped_178" depart="2994">
    <walk edges="1110246915#1 1040454951" />
  </person>
  <person id="ped_179" depart="630">
    <walk edges="-27189902 -214356716" />
  </person>
  <person id="ped_180" depart="3304">
    <walk edges="1049522243#0 -27189902" />
  </person>
  <person id="ped_181" depart="1571">
    <walk edges="-1049522243#1 1049522243#1" />
  </person>
  <person id="ped_182" depart="362">
    <walk edges="27189902 -1049522243#1" />
  </person>
  <person id="ped_183" depart="2411">
    <walk edges="1049522243#1 214356716" />
  </person>
  <person id="ped_184" depart="3492">
    <walk edges="-27189902 214356716" />
  </person>
  <person id="ped_185" depart="2272">
    <walk edges="1049522243#0 -1049522243#0" />
  </person>
  <person id="ped_186" depart="2628">
    <walk edges="-214356716 -1049522243#1" />
  </person>
  <person id="ped_187" depart="1313">
    <walk edges="27189902 -1049522243#1" />
  </person>
  <person id="ped_188" depart="1680">
    <walk edges="1049522243#0 -27189902" />
  </person>
  <person id="ped_189" depart="1411">
    <walk edges="1049522243#1 -27189902" />
  </person>
  <person id="ped_190" depart="3174">
    <walk edges="-214356716 1049522243#0" />
  </person>
  <person id="ped_191" depart="2606">
    <walk edges="1229256130#4 1268559156" />
  </person>
  <person id="ped_192" depart="2473">
    <walk edges="1268559156 1057570523#0" />
  </person>
  <person id="ped_193" depart="1425">
    <walk edges="1229256130#4 1229256130#3" />
  </person>
  <person id="ped_194" depart="1198">
    <walk edges="-1057570523#0 1268559156" />
  </person>
  <person id="ped_195" depart="1409">
    <walk edges="1229256130#3 1268559156" />
  </person>
  <person id="ped_196" depart="1717">
    <walk edges="-1229256130#3 1057570523#0" />
  </person>
  <person id="ped_197" depart="509">
    <walk edges="1057570523#0 -1229256130#3" />
  </person>
  <person id="ped_198" depart="3291">
    <walk edges="1229256130#3 -1229256130#3" />
  </person>
  <person id="ped_199" depart="460">
    <walk edges="-1057570523#0 1229256130#3" />
  </person>
  <person id="ped_200" depart="1062">
    <walk edges="1057570523#0 1229256130#3" />
  </person>
  <person id="ped_201" depart="2967">
    <walk edges="-1057570523#0 1229256130#4" />
  </person>
  <person id="ped_202" depart="678">
    <walk edges="-1057570523#0 1229256130#3" />
  </person>
  <person id="ped_203" depart="1309">
    <walk edges="-1268559156 1229256130#3" />
  </person>
  <person id="ped_204" depart="1639">
    <walk edges="-1110246914 1110246914" />
  </person>
  <person id="ped_205" depart="1392">
    <walk edges="588367501#5 588367501#6" />
  </person>
  <person id="ped_206" depart="1931">
    <walk edges="-1110246914 1110246914" />
  </person>
  <person id="ped_207" depart="3426">
    <walk edges="1110246914 -1110246914" />
  </person>
  <person id="ped_208" depart="1892">
    <walk edges="588367501#5 588367501#6" />
  </person>
  <person id="ped_209" depart="70">
    <walk edges="588367501#6 588367501#5" />
  </person>
  <person id="ped_210" depart="3078">
    <walk edges="-1110246914 1110246914" />
  </person>
  <person id="ped_211" depart="1510">
    <walk edges="588367501#5 -1110246914" />
  </person>
  <person id="ped_212" depart="3467">
    <walk edges="588367501#6 -1110246914" />
  </person>
  <person id="ped_213" depart="1881">
    <walk edges="588367501#6 588367501#5" />
  </person>
  <person id="ped_214" depart="2327">
    <walk edges="588367501#5 -1110246914" />
  </person>
  <person id="ped_215" depart="2154">
    <walk edges="-1110246914 588367501#6" />
  </person>
  <person id="ped_216" depart="2230">
    <walk edges="588367501#6 1110246914" />
  </person>
  <person id="ped_217" depart="628">
    <walk edges="588367501#6 1110246914" />
  </person>
  <person id="ped_218" depart="136">
    <walk edges="588367501#5 588367501#6" />
  </person>
  <person id="ped_219" depart="1907">
    <walk edges="-1110246914 588367501#6" />
  </person>
  <person id="ped_220" depart="2375">
    <walk edges="588367501#5 1110246914" />
  </person>
  <person id="ped_221" depart="964">
    <walk edges="1110246914 -1110246914" />
  </person>
  <person id="ped_222" depart="1343">
    <walk edges="588367501#5 -1110246914" />
  </person>
  <person id="ped_223" depart="3274">
    <walk edges="588367501#5 -1110246914" />
  </person>
  <person id="ped_224" depart="2643">
    <walk edges="588367501#6 588367501#5" />
  </person>
  <person id="ped_225" depart="837">
    <walk edges="-1110246914 1110246914" />
  </person>
  <person id="ped_226" depart="2291">
    <walk edges="1110246914 588367501#6" />
  </person>
  <person id="ped_227" depart="1022">
    <walk edges="1110246914 588367501#5" />
  </person>
  <person id="ped_228" depart="3498">
    <walk edges="588367501#6 1110246914" />
  </person>
  <person id="ped_229" depart="491">
    <walk edges="588367501#6 1110246914" />
  </person>
  <person id="ped_230" depart="2274">
    <walk edges="588367501#5 588367501#6" />
  </person>
  <person id="ped_231" depart="114">
    <walk edges="1114825837 1303180229#3" />
  </person>
  <person id="ped_232" depart="3074">
    <walk edges="1110246914 -1114825837" />
  </person>
  <person id="ped_233" depart="2572">
    <walk edges="1110246915#0 -1110246914" />
  </person>
  <person id="ped_234" depart="827">
    <walk edges="1114825837 1110246915#0" />
  </person>
  <person id="ped_235" depart="1663">
    <walk edges="1110246914 -1114825837" />
  </person>
  <person id="ped_236" depart="765">
    <walk edges="1110246915#0 -1114825837" />
  </person>
  <person id="ped_237" depart="1129">
    <walk edges="1303180229#3 1114825837" />
  </person>
  <person id="ped_238" depart="2817">
    <walk edges="1114825837 1110246914" />
  </person>
  <person id="ped_239" depart="145">
    <walk edges="1110246915#0 1110246914" />
  </person>
  <person id="ped_240" depart="1601">
    <walk edges="-1110246914 -1114825837" />
  </person>
  <person id="ped_241" depart="1511">
    <walk edges="1110246914 -1114825837" />
  </person>
  <person id="ped_242" depart="385">
    <walk edges="1303180229#3 1114825837" />
  </person>
  <person id="ped_243" depart="3424">
    <walk edges="1114825837 1110246915#0" />
  </person>
  <person id="ped_244" depart="890">
    <walk edges="1303180229#3 1110246915#0" />
  </person>
  <person id="ped_245" depart="2167">
    <walk edges="1114825837 -1114825837" />
  </person>
  <person id="ped_246" depart="3137">
    <walk edges="27211440#1 1114825837" />
  </person>
  <person id="ped_247" depart="2781">
    <walk edges="-27211440#1 -1114825837" />
  </person>
  <person id="ped_248" depart="2929">
    <walk edges="-1114825835#1 1125360269#0" />
  </person>
  <person id="ped_249" depart="3187">
    <walk edges="1125360268#4 1114825835#1" />
  </person>
  <person id="ped_250" depart="162">
    <walk edges="27211440#1 1125360269#0" />
  </person>
  <person id="ped_251" depart="311">
    <walk edges="1125360269#0 1125360268#4" />
  </person>
  <person id="ped_252" depart="1333">
    <walk edges="1125360269#0 1114825835#1" />
  </person>
  <person id="ped_253" depart="1796">
    <walk edges="-1114825837 1125360269#0" />
  </person>
  <person id="ped_254" depart="455">
    <walk edges="-1114825835#1 -27211440#1" />
  </person>
  <person id="ped_255" depart="3202">
    <walk edges="-1114825837 -27211440#1" />
  </person>
  <person id="ped_256" depart="1926">
    <walk edges="-1114825835#1 27211440#1" />
  </person>
  <person id="ped_257" depart="573">
    <walk edges="1114825835#1 -1114825835#1" />
  </person>
  <person id="ped_258" depart="279">
    <walk edges="1125360269#0 -27211440#1" />
  </person>
  <person id="ped_259" depart="454">
    <walk edges="1125360268#4 1125360269#0" />
  </person>
  <person id="ped_260" depart="2074">
    <walk edges="1125360269#0 1125360268#4" />
  </person>
  <person id="ped_261" depart="1802">
    <walk edges="-1114825837 -1114825835#1" />
  </person>
  <person id="ped_262" depart="2463">
    <walk edges="27211440#1 -1114825837" />
  </person>
  <person id="ped_263" depart="2797">
    <walk edges="-1114825835#1 1114825837" />
  </person>
  <person id="ped_264" depart="990">
    <walk edges="-1114825835#1 1114825837" />
  </person>
  <person id="ped_265" depart="2392">
    <walk edges="-1114825837 27211440#1" />
  </person>
  <person id="ped_266" depart="651">
    <walk edges="-1114825835#1 1125360268#4" />
  </person>
  <person id="ped_267" depart="375">
    <walk edges="1114825837 -1114825837" />
  </person>
  <person id="ped_268" depart="1253">
    <walk edges="1114825837 -1114825835#1" />
  </person>
  <person id="ped_269" depart="2118">
    <walk edges="-1114825837 1114825835#1" />
  </person>
  <person id="ped_270" depart="1971">
    <walk edges="1125360269#0 1114825837" />
  </person>
  <person id="ped_271" depart="1632">
    <walk edges="1125360268#4 -27211440#1" />
  </person>
  <person id="ped_272" depart="1510">
    <walk edges="27211440#1 1114825835#1" />
  </person>
  <person id="ped_273" depart="2062">
    <walk edges="27211440#1 -27211440#1" />
  </person>
  <person id="ped_274" depart="2604">
    <walk edges="1125360269#0 1114825835#1" />
  </person>
  <person id="ped_275" depart="3193">
    <walk edges="-1122582303#1 27346928#2" />
  </person>
  <person id="ped_276" depart="1289">
    <walk edges="27346928#2 -1122582303#1" />
  </person>
  <person id="ped_277" depart="3173">
    <walk edges="-1122582303#1 -27470628" />
  </person>
  <person id="ped_278" depart="2369">
    <walk edges="27346928#3 -1122582303#1" />
  </person>
  <person id="ped_279" depart="40">
    <walk edges="27346928#3 -27470628" />
  </person>
  <person id="ped_280" depart="1940">
    <walk edges="-27346928#2 -27470628" />
  </person>
  <person id="ped_281" depart="1805">
    <walk edges="27470628 -1122582303#1" />
  </person>
  <person id="ped_282" depart="3432">
    <walk edges="1122582303#1 27346928#2" />
  </person>
  <person id="ped_283" depart="3035">
    <walk edges="27346928#3 27346928#2" />
  </person>
  <person id="ped_284" depart="12">
    <walk edges="-1122582303#1 27346928#2" />
  </person>
  <person id="ped_285" depart="3127">
    <walk edges="-27470628 1122582303#1" />
  </person>
  <person id="ped_286" depart="3096">
    <walk edges="1122582303#1 -27470628" />
  </person>
  <person id="ped_287" depart="2715">
    <walk edges="27470628 -27346928#3" />
  </person>
  <person id="ped_288" depart="1576">
    <walk edges="27470628 -27470628" />
  </person>
  <person id="ped_289" depart="3253">
    <walk edges="-27346928#3 27346928#3" />
  </person>
  <person id="ped_290" depart="1750">
    <walk edges="-27346928#2 -27470628" />
  </person>
  <person id="ped_291" depart="1900">
    <walk edges="27346928#2 -27470628" />
  </person>
  <person id="ped_292" depart="2276">
    <walk edges="1122582303#1 -27470628" />
  </person>
  <person id="ped_293" depart="3278">
    <walk edges="-27346928#2 27346928#2" />
  </person>
  <person id="ped_294" depart="3152">
    <walk edges="-27346928#2 -27346928#3" />
  </person>
  <person id="ped_295" depart="2306">
    <walk edges="1122582303#1 27470628" />
  </person>
  <person id="ped_296" depart="1192">
    <walk edges="-1122582303#1 -27346928#2" />
  </person>
  <person id="ped_297" depart="1249">
    <walk edges="-27346928#3 27346928#2" />
  </person>
  <person id="ped_298" depart="1832">
    <walk edges="27346928#2 -27346928#3" />
  </person>
  <person id="ped_299" depart="1085">
    <walk edges="1122582303#1 27470628" />
  </person>
  <person id="ped_300" depart="3326">
    <walk edges="-27470628 27346928#3" />
  </person>
  <person id="ped_301" depart="1047">
    <walk edges="-27346928#3 -27346928#2" />
  </person>
  <person id="ped_302" depart="544">
    <walk edges="-1122582303#1 27470628" />
  </person>
  <person id="ped_303" depart="2752">
    <walk edges="-27346928#2 27346928#3" />
  </person>
  <person id="ped_304" depart="3467">
    <walk edges="-215526709 1125360267" />
  </person>
  <person id="ped_305" depart="3312">
    <walk edges="215526709 27189856#6" />
  </person>
  <person id="ped_306" depart="470">
    <walk edges="1125360267 -27189856#8" />
  </person>
  <person id="ped_307" depart="2749">
    <walk edges="1125360267 -215526709" />
  </person>
  <person id="ped_308" depart="1140">
    <walk edges="-27189856#6 27189856#6" />
  </person>
  <person id="ped_309" depart="2152">
    <walk edges="215526709 -27189856#8" />
  </person>
  <person id="ped_310" depart="2237">
    <walk edges="-1125360267 1125360267" />
  </person>
  <person id="ped_311" depart="2761">
    <walk edges="215526709 27189856#8" />
  </person>
  <person id="ped_312" depart="2493">
    <walk edges="27189856#6 -215526709" />
  </person>
  <person id="ped_313" depart="2601">
    <walk edges="-1125360267 1125360267" />
  </person>
  <person id="ped_314" depart="429">
    <walk edges="1125360267 27189856#6" />
  </person>
  <person id="ped_315" depart="3469">
    <walk edges="27189856#6 27189856#8" />
  </person>
  <person id="ped_316" depart="1673">