<?xml version='1.0' encoding='utf-8'?>
<additional>
  <busStop id="busStop_0" lane="1333243978_0" startPos="138.60" endPos="153.60" friendlyPos="true" />
  <busStop id="busStop_1" lane="1202063738#4_0" startPos="128.29" endPos="143.29" friendlyPos="true" />
  <busStop id="busStop_2" lane="27211440#1_0" startPos="45.88" endPos="60.88" friendlyPos="true" />
  <busStop id="busStop_3" lane="-184913347#1_0" startPos="50.49" endPos="65.49" friendlyPos="true" />
  <busStop id="busStop_4" lane="26748566#13_0" startPos="71.54" endPos="86.54" friendlyPos="true" />
  <busStop id="busStop_5" lane="-26748566#9_0" startPos="36.87" endPos="51.87" friendlyPos="true" />
  <busStop id="busStop_6" lane="-274724534#2_0" startPos="64.79" endPos="79.79" friendlyPos="true" />
  <busStop id="busStop_7" lane="-215526706#2_0" startPos="2.56" endPos="17.56" friendlyPos="true" />
  <busStop id="busStop_8" lane="-25459372#3_0" startPos="121.73" endPos="136.73" friendlyPos="true" />
  <busStop id="busStop_9" lane="23163953_0" startPos="226.94" endPos="241.94" friendlyPos="true" />
  <busStop id="busStop_10" lane="206819368_0" startPos="41.74" endPos="56.74" friendlyPos="true" />
  <busStop id="busStop_11" lane="274724531#1_0" startPos="118.66" endPos="133.66" friendlyPos="true" />
  <busStop id="busStop_12" lane="1313203553_0" startPos="290.14" endPos="305.14" friendlyPos="true" />
  <busStop id="busStop_13" lane="1359489693#2_0" startPos="571.76" endPos="586.76" friendlyPos="true" />
  <busStop id="busStop_14" lane="1323786815_0" startPos="278.50" endPos="293.50" friendlyPos="true" />
  <busStop id="busStop_15" lane="-26886533#3_0" startPos="65.68" endPos="80.68" friendlyPos="true" />
  <busStop id="busStop_16" lane="-27189856#13_0" startPos="79.42" endPos="94.42" friendlyPos="true" />
  <busStop id="busStop_17" lane="-27190018#0_0" startPos="104.06" endPos="119.06" friendlyPos="true" />
  <busStop id="busStop_18" lane="33559923#1_0" startPos="32.28" endPos="47.28" friendlyPos="true" />
  <busStop id="busStop_19" lane="386478694_0" startPos="17.91" endPos="32.91" friendlyPos="true" />
  <busStop id="busStop_20" lane="1131526942#8_0" startPos="137.50" endPos="152.50" friendlyPos="true" />
  <busStop id="busStop_21" lane="27189844#0_0" startPos="40.43" endPos="55.43" friendlyPos="true" />
  <busStop id="busStop_22" lane="726099241#1_0" startPos="77.15" endPos="92.15" friendlyPos="true" />
  <busStop id="busStop_23" lane="26524553#3_0" startPos="24.13" endPos="39.13" friendlyPos="true" />
  <busStop id="busStop_24" lane="1131526942#4_0" startPos="3.75" endPos="18.75" friendlyPos="true" />
  <busStop id="busStop_25" lane="25459372#3_0" startPos="121.73" endPos="136.73" friendlyPos="true" />
  <busStop id="busStop_26" lane="27198627#3_0" startPos="33.71" endPos="48.71" friendlyPos="true" />
  <busStop id="busStop_27" lane="34549705#1_0" startPos="0.00" endPos="5.61" friendlyPos="true" />
  <busStop id="busStop_28" lane="-27347309#11_0" startPos="68.38" endPos="83.38" friendlyPos="true" />
  <busStop id="busStop_29" lane="184913369#1_0" startPos="415.03" endPos="430.03" friendlyPos="true" />
  <busStop id="busStop_30" lane="-274724534#3_0" startPos="0.00" endPos="11.54" friendlyPos="true" />
  <busStop id="busStop_31" lane="-26524548#3_0" startPos="42.34" endPos="57.34" friendlyPos="true" />
  <busStop id="busStop_32" lane="-1211074477#0_0" startPos="18.45" endPos="33.45" friendlyPos="true" />
  <busStop id="busStop_33" lane="-25466310#7_0" startPos="0.00" endPos="11.59" friendlyPos="true" />
  <busStop id="busStop_34" lane="-27189904_0" startPos="108.42" endPos="123.42" friendlyPos="true" />
  <busStop id="busStop_35" lane="26886533#2_0" startPos="27.23" endPos="42.23" friendlyPos="true" />
  <busStop id="busStop_36" lane="-1131526943_0" startPos="146.48" endPos="161.48" friendlyPos="true" />
  <busStop id="busStop_37" lane="-1369114213#4_0" startPos="79.94" endPos="94.94" friendlyPos="true" />
  <busStop id="busStop_38" lane="1323786815_0" startPos="278.50" endPos="293.50" friendlyPos="true" />
  <busStop id="busStop_39" lane="25466496#0_0" startPos="212.30" endPos="227.30" friendlyPos="true" />
  <busStop id="busStop_40" lane="1391535377_0" startPos="132.11" endPos="147.11" friendlyPos="true" />
  <busStop id="busStop_41" lane="1333243978_0" startPos="138.60" endPos="153.60" friendlyPos="true" />
  <busStop id="busStop_42" lane="1202063738#5_0" startPos="122.16" endPos="137.16" friendlyPos="true" />
  <busStop id="busStop_43" lane="27189858#3_0" startPos="151.61" endPos="166.61" friendlyPos="true" />
  <busStop id="busStop_44" lane="836742076#1_0" startPos="126.79" endPos="141.79" friendlyPos="true" />
  <busStop id="busStop_45" lane="418880841#1_0" startPos="126.68" endPos="141.68" friendlyPos="true" />
  <busStop id="busStop_46" lane="160274859#0_0" startPos="433.71" endPos="448.71" friendlyPos="true" />
  <busStop id="busStop_47" lane="-1313532105_0" startPos="110.91" endPos="125.91" friendlyPos="true" />
  <busStop id="busStop_48" lane="25466339#12_0" startPos="46.36" endPos="61.36" friendlyPos="true" />
  <busStop id="busStop_49" lane="27189894#2_0" startPos="107.70" endPos="122.70" friendlyPos="true" />
  <busStop id="busStop_50" lane="1358566878_0" startPos="0.00" endPos="-0.51" friendlyPos="true" />
  <busStop id="busStop_51" lane="1349707178#7_0" startPos="27.67" endPos="42.67" friendlyPos="true" />
  <busStop id="busStop_52" lane="1333243978_0" startPos="138.60" endPos="153.60" friendlyPos="true" />
  <busStop id="busStop_53" lane="214598755#2_0" startPos="217.02" endPos="232.02" friendlyPos="true" />
  <busStop id="busStop_54" lane="-25459210#7_0" startPos="0.00" endPos="10.27" friendlyPos="true" />
  <busStop id="busStop_55" lane="27189809#3_0" startPos="0.00" endPos="9.99" friendlyPos="true" />
  <busStop id="busStop_56" lane="-26524548#7_0" startPos="35.46" endPos="50.46" friendlyPos="true" />
  <busStop id="busStop_57" lane="1280153710#0_0" startPos="150.68" endPos="165.68" friendlyPos="true" />
  <busStop id="busStop_58" lane="27433077#0_0" startPos="7.26" endPos="22.26" friendlyPos="true" />
  <busStop id="busStop_59" lane="186797328_0" startPos="120.98" endPos="135.98" friendlyPos="true" />
  <busStop id="busStop_60" lane="1131526942#4_0" startPos="3.75" endPos="18.75" friendlyPos="true" />
  <busStop id="busStop_61" lane="25459372#3_0" startPos="121.73" endPos="136.73" friendlyPos="true" />
  <busStop id="busStop_62" lane="27198627#4_0" startPos="16.73" endPos="31.73" friendlyPos="true" />
  <busStop id="busStop_63" lane="-217754784#1_0" startPos="25.27" endPos="40.27" friendlyPos="true" />
  <busStop id="busStop_64" lane="1230508744_0" startPos="44.67" endPos="59.67" friendlyPos="true" />
  <busStop id="busStop_65" lane="-25466396#1_0" startPos="37.15" endPos="52.15" friendlyPos="true" />
  <busStop id="busStop_66" lane="-25459293#1_0" startPos="0.00" endPos="12.19" friendlyPos="true" />
  <busStop id="busStop_67" lane="209535253#0_0" startPos="29.41" endPos="44.41" friendlyPos="true" />
</additional>